file 16060733 1643965096                                        
version 3
run General-0-20220204-09:57:39-7160
attr configname General
attr datetime 20220204-09:57:39
attr datetimef 20220204-095739
attr experiment General
attr inifile omnetpp.ini
attr iterationvars ""
attr iterationvarsd ""
attr iterationvarsf ""
attr measurement ""
attr network mapcrocetta.utils.Crocetta
attr processid 7160
attr repetition 0
attr replication #0
attr resultdir results
attr runnumber 0
attr seedset 0
config image-path ../../../inet/images:../../../simu5g/images:../../../veins/subprojects/veins_inet/images:../../../veins/images
config cmdenv-express-mode true
config cmdenv-autoflush true
config cmdenv-status-frequency 1s
config **.cmdenv-log-level info
config image-path ../../images
config network mapcrocetta.utils.Crocetta
config debug-on-errors false
config print-undisposed false
config sim-time-limit 3600s
config **.sctp.**.scalar-recording true
config **.sctp.**.vector-recording true
config **.routingRecorder.enabled false
config *.playgroundSizeX 5000m
config *.playgroundSizeY 5000m
config *.playgroundSizeZ 50m
config *.veinsManager.host "\"localhost\""
config *.veinsManager.moduleType "\"simu5g.nodes.cars.NRCar\""
config *.veinsManager.moduleName "\"car\""
config *.veinsManager.launchConfig "xmldoc(\"map.launchd.xml\")"
config *.veinsManager.updateInterval 0.1s
config *.car[*].mobilityType "\"VeinsInetMobility\""
config **.numBands 25
config **.ueTxPower 26
config **.eNodeBTxPower 46
config *.car[*].cellularNic.nrPhy.dynamicCellAssociation true
config *.car[*].masterId 0
config *.car[*].macCellId 0
config *.car[*].nrMasterId 1
config *.car[*].nrMacCellId 1
config **.gNodeB1.macCellId 1
config **.gNodeB1.macNodeId 1
config **.gNodeB2.macCellId 2
config **.gNodeB2.macNodeId 2
config **.gNodeB3.macCellId 3
config **.gNodeB3.macNodeId 3
config **.gNodeB4.macCellId 4
config **.gNodeB4.macNodeId 4
config **.gNodeB5.macCellId 5
config **.gNodeB5.macNodeId 5
config **.gNodeB6.macCellId 6
config **.gNodeB6.macNodeId 6
config **.gNodeB7.macCellId 7
config **.gNodeB7.macNodeId 7
config **.gNodeB8.macCellId 8
config **.gNodeB8.macNodeId 8
config **.gNodeB9.macCellId 9
config **.gNodeB9.macNodeId 9
config **.gNodeB10.macCellId 10
config **.gNodeB10.macNodeId 10
config **.gNodeB11.macCellId 11
config **.gNodeB11.macNodeId 11
config **.gNodeB12.macCellId 12
config **.gNodeB12.macNodeId 12
config **.gNodeB13.macCellId 13
config **.gNodeB13.macNodeId 13
config **.gNodeB14.macCellId 14
config **.gNodeB14.macNodeId 14
config **.gNodeB15.macCellId 15
config **.gNodeB15.macNodeId 15
config **.gNodeB16.macCellId 16
config **.gNodeB16.macNodeId 16
config **.gNodeB17.macCellId 16
config **.gNodeB17.macNodeId 16
config *.car[*].cellularNic.nrPhy.enableHandover true
config *.gNodeB*.cellularNic.phy.enableHandover true
config *.gNodeB*.cellularNic.phy.handoverLatency 10ms
config *.gNodeB*.cellInfo.broadcastMessageInterval 1s
config *.gNodeB1.numX2Apps 2
config *.gNodeB2.numX2Apps 2
config *.gNodeB3.numX2Apps 2
config *.gNodeB4.numX2Apps 2
config *.gNodeB5.numX2Apps 2
config *.gNodeB6.numX2Apps 2
config *.gNodeB7.numX2Apps 2
config *.gNodeB8.numX2Apps 2
config *.gNodeB9.numX2Apps 2
config *.gNodeB10.numX2Apps 2
config *.gNodeB11.numX2Apps 2
config *.gNodeB12.numX2Apps 2
config *.gNodeB13.numX2Apps 2
config *.gNodeB14.numX2Apps 2
config *.gNodeB15.numX2Apps 2
config *.gNodeB16.numX2Apps 2
config *.gNodeB17.numX2Apps 2
config *.gNodeB*.x2App[*].server.localPort "5000 + ancestorIndex(1)"
config *.gNodeB1.x2App[0].client.connectAddress "\"gNodeB2%x2ppp0\""
config *.gNodeB1.x2App[1].client.connectAddress "\"gNodeB17%x2ppp0\""
config *.gNodeB2.x2App[0].client.connectAddress "\"gNodeB1%x2ppp0\""
config *.gNodeB2.x2App[1].client.connectAddress "\"gNodeB3%x2ppp0\""
config *.gNodeB3.x2App[0].client.connectAddress "\"gNodeB2%x2ppp0\""
config *.gNodeB3.x2App[1].client.connectAddress "\"gNodeB4%x2ppp0\""
config *.gNodeB4.x2App[0].client.connectAddress "\"gNodeB3%x2ppp0\""
config *.gNodeB4.x2App[1].client.connectAddress "\"gNodeB5%x2ppp0\""
config *.gNodeB5.x2App[0].client.connectAddress "\"gNodeB4%x2ppp0\""
config *.gNodeB5.x2App[1].client.connectAddress "\"gNodeB6%x2ppp0\""
config *.gNodeB6.x2App[0].client.connectAddress "\"gNodeB5%x2ppp0\""
config *.gNodeB6.x2App[1].client.connectAddress "\"gNodeB7%x2ppp0\""
config *.gNodeB7.x2App[0].client.connectAddress "\"gNodeB6%x2ppp0\""
config *.gNodeB7.x2App[1].client.connectAddress "\"gNodeB8%x2ppp0\""
config *.gNodeB8.x2App[0].client.connectAddress "\"gNodeB7%x2ppp0\""
config *.gNodeB8.x2App[1].client.connectAddress "\"gNodeB9%x2ppp0\""
config *.gNodeB9.x2App[0].client.connectAddress "\"gNodeB8%x2ppp0\""
config *.gNodeB9.x2App[1].client.connectAddress "\"gNodeB10%x2ppp0\""
config *.gNodeB10.x2App[0].client.connectAddress "\"gNodeB9%x2ppp0\""
config *.gNodeB10.x2App[1].client.connectAddress "\"gNodeB11%x2ppp0\""
config *.gNodeB11.x2App[0].client.connectAddress "\"gNodeB10%x2ppp0\""
config *.gNodeB11.x2App[1].client.connectAddress "\"gNodeB12%x2ppp0\""
config *.gNodeB12.x2App[0].client.connectAddress "\"gNodeB11%x2ppp0\""
config *.gNodeB12.x2App[1].client.connectAddress "\"gNodeB13%x2ppp0\""
config *.gNodeB13.x2App[0].client.connectAddress "\"gNodeB12%x2ppp0\""
config *.gNodeB13.x2App[1].client.connectAddress "\"gNodeB14%x2ppp0\""
config *.gNodeB14.x2App[0].client.connectAddress "\"gNodeB13%x2ppp0\""
config *.gNodeB14.x2App[1].client.connectAddress "\"gNodeB15%x2ppp0\""
config *.gNodeB15.x2App[0].client.connectAddress "\"gNodeB14%x2ppp0\""
config *.gNodeB15.x2App[1].client.connectAddress "\"gNodeB16%x2ppp0\""
config *.gNodeB16.x2App[0].client.connectAddress "\"gNodeB15%x2ppp0\""
config *.gNodeB16.x2App[1].client.connectAddress "\"gNodeB17%x2ppp0\""
config *.gNodeB17.x2App[0].client.connectAddress "\"gNodeB16%x2ppp0\""
config *.gNodeB17.x2App[1].client.connectAddress "\"gNodeB1%x2ppp0\""
config **.sctp.nagleEnabled false
config **.sctp.enableHeartbeats false
config *.server.numApps 100
config *.server.app[*].typename VoIPReceiver
config *.server.app[*].localPort "3000 + ancestorIndex(0)"
config *.car[*].numApps 1
config *.car[*].app[0].typename VoIPSender
config *.car[*].app[0].destAddress "\"server\""
config *.car[*].app[0].destPort "3000 + ancestorIndex(1)"

vector 0 Crocetta.server.ppp[0].ppp transmissionState:vector ETV
attr interpolationmode sample-hold
attr source transmissionStateChanged
attr title "tx state, vector"
vector 1 Crocetta.router.ppp[0].ppp transmissionState:vector ETV
attr interpolationmode sample-hold
attr source transmissionStateChanged
attr title "tx state, vector"
vector 2 Crocetta.router.ppp[1].ppp transmissionState:vector ETV
attr interpolationmode sample-hold
attr source transmissionStateChanged
attr title "tx state, vector"
vector 3 Crocetta.upf.ppp[0].ppp transmissionState:vector ETV
attr interpolationmode sample-hold
attr source transmissionStateChanged
attr title "tx state, vector"
vector 4 Crocetta.upf.ppp[1].ppp transmissionState:vector ETV
attr interpolationmode sample-hold
attr source transmissionStateChanged
attr title "tx state, vector"
vector 5 Crocetta.upf.ppp[2].ppp transmissionState:vector ETV
attr interpolationmode sample-hold
attr source transmissionStateChanged
attr title "tx state, vector"
vector 6 Crocetta.upf.ppp[3].ppp transmissionState:vector ETV
attr interpolationmode sample-hold
attr source transmissionStateChanged
attr title "tx state, vector"
vector 7 Crocetta.upf.ppp[4].ppp transmissionState:vector ETV
attr interpolationmode sample-hold
attr source transmissionStateChanged
attr title "tx state, vector"
vector 8 Crocetta.upf.ppp[5].ppp transmissionState:vector ETV
attr interpolationmode sample-hold
attr source transmissionStateChanged
attr title "tx state, vector"
vector 9 Crocetta.upf.ppp[6].ppp transmissionState:vector ETV
attr interpolationmode sample-hold
attr source transmissionStateChanged
attr title "tx state, vector"
vector 10 Crocetta.upf.ppp[7].ppp transmissionState:vector ETV
attr interpolationmode sample-hold
attr source transmissionStateChanged
attr title "tx state, vector"
vector 11 Crocetta.upf.ppp[8].ppp transmissionState:vector ETV
attr interpolationmode sample-hold
attr source transmissionStateChanged
attr title "tx state, vector"
vector 12 Crocetta.upf.ppp[9].ppp transmissionState:vector ETV
attr interpolationmode sample-hold
attr source transmissionStateChanged
attr title "tx state, vector"
vector 13 Crocetta.upf.ppp[10].ppp transmissionState:vector ETV
attr interpolationmode sample-hold
attr source transmissionStateChanged
attr title "tx state, vector"
vector 14 Crocetta.upf.ppp[11].ppp transmissionState:vector ETV
attr interpolationmode sample-hold
attr source transmissionStateChanged
attr title "tx state, vector"
vector 15 Crocetta.upf.ppp[12].ppp transmissionState:vector ETV
attr interpolationmode sample-hold
attr source transmissionStateChanged
attr title "tx state, vector"
vector 16 Crocetta.upf.ppp[13].ppp transmissionState:vector ETV
attr interpolationmode sample-hold
attr source transmissionStateChanged
attr title "tx state, vector"
vector 17 Crocetta.upf.ppp[14].ppp transmissionState:vector ETV
attr interpolationmode sample-hold
attr source transmissionStateChanged
attr title "tx state, vector"
vector 18 Crocetta.upf.ppp[15].ppp transmissionState:vector ETV
attr interpolationmode sample-hold
attr source transmissionStateChanged
attr title "tx state, vector"
vector 19 Crocetta.upf.ppp[16].ppp transmissionState:vector ETV
attr interpolationmode sample-hold
attr source transmissionStateChanged
attr title "tx state, vector"
vector 20 Crocetta.upf.pppIf.ppp transmissionState:vector ETV
attr interpolationmode sample-hold
attr source transmissionStateChanged
attr title "tx state, vector"
vector 21 Crocetta.gNodeB1.pppIf.ppp transmissionState:vector ETV
attr interpolationmode sample-hold
attr source transmissionStateChanged
attr title "tx state, vector"
vector 22 Crocetta.gNodeB1.x2ppp[0].ppp transmissionState:vector ETV
attr interpolationmode sample-hold
attr source transmissionStateChanged
attr title "tx state, vector"
vector 23 Crocetta.gNodeB1.x2ppp[1].ppp transmissionState:vector ETV
attr interpolationmode sample-hold
attr source transmissionStateChanged
attr title "tx state, vector"
vector 24 Crocetta.gNodeB1.pppMEHostIf.ppp transmissionState:vector ETV
attr interpolationmode sample-hold
attr source transmissionStateChanged
attr title "tx state, vector"
vector 25 Crocetta.gNodeB2.pppIf.ppp transmissionState:vector ETV
attr interpolationmode sample-hold
attr source transmissionStateChanged
attr title "tx state, vector"
vector 26 Crocetta.gNodeB2.x2ppp[0].ppp transmissionState:vector ETV
attr interpolationmode sample-hold
attr source transmissionStateChanged
attr title "tx state, vector"
vector 27 Crocetta.gNodeB2.x2ppp[1].ppp transmissionState:vector ETV
attr interpolationmode sample-hold
attr source transmissionStateChanged
attr title "tx state, vector"
vector 28 Crocetta.gNodeB2.pppMEHostIf.ppp transmissionState:vector ETV
attr interpolationmode sample-hold
attr source transmissionStateChanged
attr title "tx state, vector"
vector 29 Crocetta.gNodeB3.pppIf.ppp transmissionState:vector ETV
attr interpolationmode sample-hold
attr source transmissionStateChanged
attr title "tx state, vector"
vector 30 Crocetta.gNodeB3.x2ppp[0].ppp transmissionState:vector ETV
attr interpolationmode sample-hold
attr source transmissionStateChanged
attr title "tx state, vector"
vector 31 Crocetta.gNodeB3.x2ppp[1].ppp transmissionState:vector ETV
attr interpolationmode sample-hold
attr source transmissionStateChanged
attr title "tx state, vector"
vector 32 Crocetta.gNodeB3.pppMEHostIf.ppp transmissionState:vector ETV
attr interpolationmode sample-hold
attr source transmissionStateChanged
attr title "tx state, vector"
vector 33 Crocetta.gNodeB4.pppIf.ppp transmissionState:vector ETV
attr interpolationmode sample-hold
attr source transmissionStateChanged
attr title "tx state, vector"
vector 34 Crocetta.gNodeB4.x2ppp[0].ppp transmissionState:vector ETV
attr interpolationmode sample-hold
attr source transmissionStateChanged
attr title "tx state, vector"
vector 35 Crocetta.gNodeB4.x2ppp[1].ppp transmissionState:vector ETV
attr interpolationmode sample-hold
attr source transmissionStateChanged
attr title "tx state, vector"
vector 36 Crocetta.gNodeB4.pppMEHostIf.ppp transmissionState:vector ETV
attr interpolationmode sample-hold
attr source transmissionStateChanged
attr title "tx state, vector"
vector 37 Crocetta.gNodeB5.pppIf.ppp transmissionState:vector ETV
attr interpolationmode sample-hold
attr source transmissionStateChanged
attr title "tx state, vector"
vector 38 Crocetta.gNodeB5.x2ppp[0].ppp transmissionState:vector ETV
attr interpolationmode sample-hold
attr source transmissionStateChanged
attr title "tx state, vector"
vector 39 Crocetta.gNodeB5.x2ppp[1].ppp transmissionState:vector ETV
attr interpolationmode sample-hold
attr source transmissionStateChanged
attr title "tx state, vector"
vector 40 Crocetta.gNodeB5.pppMEHostIf.ppp transmissionState:vector ETV
attr interpolationmode sample-hold
attr source transmissionStateChanged
attr title "tx state, vector"
vector 41 Crocetta.gNodeB6.pppIf.ppp transmissionState:vector ETV
attr interpolationmode sample-hold
attr source transmissionStateChanged
attr title "tx state, vector"
vector 42 Crocetta.gNodeB6.x2ppp[0].ppp transmissionState:vector ETV
attr interpolationmode sample-hold
attr source transmissionStateChanged
attr title "tx state, vector"
vector 43 Crocetta.gNodeB6.x2ppp[1].ppp transmissionState:vector ETV
attr interpolationmode sample-hold
attr source transmissionStateChanged
attr title "tx state, vector"
vector 44 Crocetta.gNodeB6.pppMEHostIf.ppp transmissionState:vector ETV
attr interpolationmode sample-hold
attr source transmissionStateChanged
attr title "tx state, vector"
vector 45 Crocetta.gNodeB7.pppIf.ppp transmissionState:vector ETV
attr interpolationmode sample-hold
attr source transmissionStateChanged
attr title "tx state, vector"
vector 46 Crocetta.gNodeB7.x2ppp[0].ppp transmissionState:vector ETV
attr interpolationmode sample-hold
attr source transmissionStateChanged
attr title "tx state, vector"
vector 47 Crocetta.gNodeB7.x2ppp[1].ppp transmissionState:vector ETV
attr interpolationmode sample-hold
attr source transmissionStateChanged
attr title "tx state, vector"
vector 48 Crocetta.gNodeB7.pppMEHostIf.ppp transmissionState:vector ETV
attr interpolationmode sample-hold
attr source transmissionStateChanged
attr title "tx state, vector"
vector 49 Crocetta.gNodeB8.pppIf.ppp transmissionState:vector ETV
attr interpolationmode sample-hold
attr source transmissionStateChanged
attr title "tx state, vector"
vector 50 Crocetta.gNodeB8.x2ppp[0].ppp transmissionState:vector ETV
attr interpolationmode sample-hold
attr source transmissionStateChanged
attr title "tx state, vector"
vector 51 Crocetta.gNodeB8.x2ppp[1].ppp transmissionState:vector ETV
attr interpolationmode sample-hold
attr source transmissionStateChanged
attr title "tx state, vector"
vector 52 Crocetta.gNodeB8.pppMEHostIf.ppp transmissionState:vector ETV
attr interpolationmode sample-hold
attr source transmissionStateChanged
attr title "tx state, vector"
vector 53 Crocetta.gNodeB9.pppIf.ppp transmissionState:vector ETV
attr interpolationmode sample-hold
attr source transmissionStateChanged
attr title "tx state, vector"
vector 54 Crocetta.gNodeB9.x2ppp[0].ppp transmissionState:vector ETV
attr interpolationmode sample-hold
attr source transmissionStateChanged
attr title "tx state, vector"
vector 55 Crocetta.gNodeB9.x2ppp[1].ppp transmissionState:vector ETV
attr interpolationmode sample-hold
attr source transmissionStateChanged
attr title "tx state, vector"
vector 56 Crocetta.gNodeB9.pppMEHostIf.ppp transmissionState:vector ETV
attr interpolationmode sample-hold
attr source transmissionStateChanged
attr title "tx state, vector"
vector 57 Crocetta.gNodeB10.pppIf.ppp transmissionState:vector ETV
attr interpolationmode sample-hold
attr source transmissionStateChanged
attr title "tx state, vector"
vector 58 Crocetta.gNodeB10.x2ppp[0].ppp transmissionState:vector ETV
attr interpolationmode sample-hold
attr source transmissionStateChanged
attr title "tx state, vector"
vector 59 Crocetta.gNodeB10.x2ppp[1].ppp transmissionState:vector ETV
attr interpolationmode sample-hold
attr source transmissionStateChanged
attr title "tx state, vector"
vector 60 Crocetta.gNodeB10.pppMEHostIf.ppp transmissionState:vector ETV
attr interpolationmode sample-hold
attr source transmissionStateChanged
attr title "tx state, vector"
vector 61 Crocetta.gNodeB11.pppIf.ppp transmissionState:vector ETV
attr interpolationmode sample-hold
attr source transmissionStateChanged
attr title "tx state, vector"
vector 62 Crocetta.gNodeB11.x2ppp[0].ppp transmissionState:vector ETV
attr interpolationmode sample-hold
attr source transmissionStateChanged
attr title "tx state, vector"
vector 63 Crocetta.gNodeB11.x2ppp[1].ppp transmissionState:vector ETV
attr interpolationmode sample-hold
attr source transmissionStateChanged
attr title "tx state, vector"
vector 64 Crocetta.gNodeB11.pppMEHostIf.ppp transmissionState:vector ETV
attr interpolationmode sample-hold
attr source transmissionStateChanged
attr title "tx state, vector"
vector 65 Crocetta.gNodeB12.pppIf.ppp transmissionState:vector ETV
attr interpolationmode sample-hold
attr source transmissionStateChanged
attr title "tx state, vector"
vector 66 Crocetta.gNodeB12.x2ppp[0].ppp transmissionState:vector ETV
attr interpolationmode sample-hold
attr source transmissionStateChanged
attr title "tx state, vector"
vector 67 Crocetta.gNodeB12.x2ppp[1].ppp transmissionState:vector ETV
attr interpolationmode sample-hold
attr source transmissionStateChanged
attr title "tx state, vector"
vector 68 Crocetta.gNodeB12.pppMEHostIf.ppp transmissionState:vector ETV
attr interpolationmode sample-hold
attr source transmissionStateChanged
attr title "tx state, vector"
vector 69 Crocetta.gNodeB13.pppIf.ppp transmissionState:vector ETV
attr interpolationmode sample-hold
attr source transmissionStateChanged
attr title "tx state, vector"
vector 70 Crocetta.gNodeB13.x2ppp[0].ppp transmissionState:vector ETV
attr interpolationmode sample-hold
attr source transmissionStateChanged
attr title "tx state, vector"
vector 71 Crocetta.gNodeB13.x2ppp[1].ppp transmissionState:vector ETV
attr interpolationmode sample-hold
attr source transmissionStateChanged
attr title "tx state, vector"
vector 72 Crocetta.gNodeB13.pppMEHostIf.ppp transmissionState:vector ETV
attr interpolationmode sample-hold
attr source transmissionStateChanged
attr title "tx state, vector"
vector 73 Crocetta.gNodeB14.pppIf.ppp transmissionState:vector ETV
attr interpolationmode sample-hold
attr source transmissionStateChanged
attr title "tx state, vector"
vector 74 Crocetta.gNodeB14.x2ppp[0].ppp transmissionState:vector ETV
attr interpolationmode sample-hold
attr source transmissionStateChanged
attr title "tx state, vector"
vector 75 Crocetta.gNodeB14.x2ppp[1].ppp transmissionState:vector ETV
attr interpolationmode sample-hold
attr source transmissionStateChanged
attr title "tx state, vector"
vector 76 Crocetta.gNodeB14.pppMEHostIf.ppp transmissionState:vector ETV
attr interpolationmode sample-hold
attr source transmissionStateChanged
attr title "tx state, vector"
vector 77 Crocetta.gNodeB15.pppIf.ppp transmissionState:vector ETV
attr interpolationmode sample-hold
attr source transmissionStateChanged
attr title "tx state, vector"
vector 78 Crocetta.gNodeB15.x2ppp[0].ppp transmissionState:vector ETV
attr interpolationmode sample-hold
attr source transmissionStateChanged
attr title "tx state, vector"
vector 79 Crocetta.gNodeB15.x2ppp[1].ppp transmissionState:vector ETV
attr interpolationmode sample-hold
attr source transmissionStateChanged
attr title "tx state, vector"
vector 80 Crocetta.gNodeB15.pppMEHostIf.ppp transmissionState:vector ETV
attr interpolationmode sample-hold
attr source transmissionStateChanged
attr title "tx state, vector"
vector 81 Crocetta.gNodeB16.pppIf.ppp transmissionState:vector ETV
attr interpolationmode sample-hold
attr source transmissionStateChanged
attr title "tx state, vector"
vector 82 Crocetta.gNodeB16.x2ppp[0].ppp transmissionState:vector ETV
attr interpolationmode sample-hold
attr source transmissionStateChanged
attr title "tx state, vector"
vector 83 Crocetta.gNodeB16.x2ppp[1].ppp transmissionState:vector ETV
attr interpolationmode sample-hold
attr source transmissionStateChanged
attr title "tx state, vector"
vector 84 Crocetta.gNodeB16.pppMEHostIf.ppp transmissionState:vector ETV
attr interpolationmode sample-hold
attr source transmissionStateChanged
attr title "tx state, vector"
vector 85 Crocetta.gNodeB17.pppIf.ppp transmissionState:vector ETV
attr interpolationmode sample-hold
attr source transmissionStateChanged
attr title "tx state, vector"
vector 86 Crocetta.gNodeB17.x2ppp[0].ppp transmissionState:vector ETV
attr interpolationmode sample-hold
attr source transmissionStateChanged
attr title "tx state, vector"
vector 87 Crocetta.gNodeB17.x2ppp[1].ppp transmissionState:vector ETV
attr interpolationmode sample-hold
attr source transmissionStateChanged
attr title "tx state, vector"
vector 88 Crocetta.gNodeB17.pppMEHostIf.ppp transmissionState:vector ETV
attr interpolationmode sample-hold
attr source transmissionStateChanged
attr title "tx state, vector"
vector 89 Crocetta.gNodeB1.sctp "Throughput of Association 292" ETV
vector 90 Crocetta.gNodeB1.sctp "Throughput of Association 293" ETV
vector 91 Crocetta.gNodeB2.sctp "Throughput of Association 294" ETV
vector 92 Crocetta.gNodeB2.sctp "Throughput of Association 295" ETV
vector 93 Crocetta.gNodeB3.sctp "Throughput of Association 296" ETV
vector 94 Crocetta.gNodeB3.sctp "Throughput of Association 297" ETV
vector 95 Crocetta.gNodeB4.sctp "Throughput of Association 298" ETV
vector 96 Crocetta.gNodeB4.sctp "Throughput of Association 299" ETV
vector 97 Crocetta.gNodeB5.sctp "Throughput of Association 300" ETV
vector 98 Crocetta.gNodeB5.sctp "Throughput of Association 301" ETV
vector 99 Crocetta.gNodeB6.sctp "Throughput of Association 302" ETV
vector 100 Crocetta.gNodeB6.sctp "Throughput of Association 303" ETV
vector 101 Crocetta.gNodeB7.sctp "Throughput of Association 304" ETV
vector 102 Crocetta.gNodeB7.sctp "Throughput of Association 305" ETV
vector 103 Crocetta.gNodeB8.sctp "Throughput of Association 306" ETV
vector 104 Crocetta.gNodeB8.sctp "Throughput of Association 307" ETV
vector 105 Crocetta.gNodeB9.sctp "Throughput of Association 308" ETV
vector 106 Crocetta.gNodeB9.sctp "Throughput of Association 309" ETV
vector 107 Crocetta.gNodeB10.sctp "Throughput of Association 310" ETV
vector 108 Crocetta.gNodeB10.sctp "Throughput of Association 311" ETV
vector 109 Crocetta.gNodeB11.sctp "Throughput of Association 312" ETV
vector 110 Crocetta.gNodeB11.sctp "Throughput of Association 313" ETV
vector 111 Crocetta.gNodeB12.sctp "Throughput of Association 314" ETV
vector 112 Crocetta.gNodeB12.sctp "Throughput of Association 315" ETV
vector 113 Crocetta.gNodeB13.sctp "Throughput of Association 316" ETV
vector 114 Crocetta.gNodeB13.sctp "Throughput of Association 317" ETV
vector 115 Crocetta.gNodeB14.sctp "Throughput of Association 318" ETV
vector 116 Crocetta.gNodeB14.sctp "Throughput of Association 319" ETV
vector 117 Crocetta.gNodeB15.sctp "Throughput of Association 320" ETV
vector 118 Crocetta.gNodeB15.sctp "Throughput of Association 321" ETV
vector 119 Crocetta.gNodeB16.sctp "Throughput of Association 322" ETV
vector 120 Crocetta.gNodeB16.sctp "Throughput of Association 323" ETV
vector 121 Crocetta.gNodeB17.sctp "Throughput of Association 324" ETV
vector 122 Crocetta.gNodeB17.sctp "Throughput of Association 325" ETV
vector 123 Crocetta.gNodeB1.sctp "Throughput of Association 104" ETV
vector 124 Crocetta.gNodeB1.sctp "Fast Recovery State 104:192.168.19.2" ETV
vector 125 Crocetta.gNodeB1.sctp "Throughput of Association 105" ETV
vector 126 Crocetta.gNodeB1.sctp "Fast Recovery State 105:192.168.50.2" ETV
vector 127 Crocetta.gNodeB2.sctp "Throughput of Association 109" ETV
vector 128 Crocetta.gNodeB2.sctp "Fast Recovery State 109:192.168.19.1" ETV
vector 129 Crocetta.gNodeB2.sctp "Throughput of Association 110" ETV
vector 130 Crocetta.gNodeB2.sctp "Fast Recovery State 110:192.168.22.2" ETV
vector 131 Crocetta.gNodeB3.sctp "Throughput of Association 114" ETV
vector 132 Crocetta.gNodeB3.sctp "Fast Recovery State 114:192.168.19.2" ETV
vector 133 Crocetta.gNodeB3.sctp "Throughput of Association 115" ETV
vector 134 Crocetta.gNodeB3.sctp "Fast Recovery State 115:192.168.24.2" ETV
vector 135 Crocetta.gNodeB4.sctp "Throughput of Association 119" ETV
vector 136 Crocetta.gNodeB4.sctp "Fast Recovery State 119:192.168.22.2" ETV
vector 137 Crocetta.gNodeB4.sctp "Throughput of Association 120" ETV
vector 138 Crocetta.gNodeB4.sctp "Fast Recovery State 120:192.168.26.2" ETV
vector 139 Crocetta.gNodeB5.sctp "Throughput of Association 124" ETV
vector 140 Crocetta.gNodeB5.sctp "Fast Recovery State 124:192.168.24.2" ETV
vector 141 Crocetta.gNodeB5.sctp "Throughput of Association 125" ETV
vector 142 Crocetta.gNodeB5.sctp "Fast Recovery State 125:192.168.28.2" ETV
vector 143 Crocetta.gNodeB6.sctp "Throughput of Association 129" ETV
vector 144 Crocetta.gNodeB6.sctp "Fast Recovery State 129:192.168.26.2" ETV
vector 145 Crocetta.gNodeB6.sctp "Throughput of Association 130" ETV
vector 146 Crocetta.gNodeB6.sctp "Fast Recovery State 130:192.168.30.2" ETV
vector 147 Crocetta.gNodeB7.sctp "Throughput of Association 134" ETV
vector 148 Crocetta.gNodeB7.sctp "Fast Recovery State 134:192.168.28.2" ETV
vector 149 Crocetta.gNodeB7.sctp "Throughput of Association 135" ETV
vector 150 Crocetta.gNodeB7.sctp "Fast Recovery State 135:192.168.32.2" ETV
vector 151 Crocetta.gNodeB8.sctp "Throughput of Association 139" ETV
vector 152 Crocetta.gNodeB8.sctp "Fast Recovery State 139:192.168.30.2" ETV
vector 153 Crocetta.gNodeB8.sctp "Throughput of Association 140" ETV
vector 154 Crocetta.gNodeB8.sctp "Fast Recovery State 140:192.168.34.2" ETV
vector 155 Crocetta.gNodeB9.sctp "Throughput of Association 144" ETV
vector 156 Crocetta.gNodeB9.sctp "Fast Recovery State 144:192.168.32.2" ETV
vector 157 Crocetta.gNodeB9.sctp "Throughput of Association 145" ETV
vector 158 Crocetta.gNodeB9.sctp "Fast Recovery State 145:192.168.36.2" ETV
vector 159 Crocetta.gNodeB10.sctp "Throughput of Association 149" ETV
vector 160 Crocetta.gNodeB10.sctp "Fast Recovery State 149:192.168.34.2" ETV
vector 161 Crocetta.gNodeB10.sctp "Throughput of Association 150" ETV
vector 162 Crocetta.gNodeB10.sctp "Fast Recovery State 150:192.168.38.2" ETV
vector 163 Crocetta.gNodeB11.sctp "Throughput of Association 154" ETV
vector 164 Crocetta.gNodeB11.sctp "Fast Recovery State 154:192.168.36.2" ETV
vector 165 Crocetta.gNodeB11.sctp "Throughput of Association 155" ETV
vector 166 Crocetta.gNodeB11.sctp "Fast Recovery State 155:192.168.40.2" ETV
vector 167 Crocetta.gNodeB12.sctp "Throughput of Association 159" ETV
vector 168 Crocetta.gNodeB12.sctp "Fast Recovery State 159:192.168.38.2" ETV
vector 169 Crocetta.gNodeB12.sctp "Throughput of Association 160" ETV
vector 170 Crocetta.gNodeB12.sctp "Fast Recovery State 160:192.168.42.2" ETV
vector 171 Crocetta.gNodeB13.sctp "Throughput of Association 164" ETV
vector 172 Crocetta.gNodeB13.sctp "Fast Recovery State 164:192.168.40.2" ETV
vector 173 Crocetta.gNodeB13.sctp "Throughput of Association 165" ETV
vector 174 Crocetta.gNodeB13.sctp "Fast Recovery State 165:192.168.44.2" ETV
vector 175 Crocetta.gNodeB14.sctp "Throughput of Association 169" ETV
vector 176 Crocetta.gNodeB14.sctp "Fast Recovery State 169:192.168.42.2" ETV
vector 177 Crocetta.gNodeB14.sctp "Throughput of Association 170" ETV
vector 178 Crocetta.gNodeB14.sctp "Fast Recovery State 170:192.168.46.2" ETV
vector 179 Crocetta.gNodeB15.sctp "Throughput of Association 174" ETV
vector 180 Crocetta.gNodeB15.sctp "Fast Recovery State 174:192.168.44.2" ETV
vector 181 Crocetta.gNodeB15.sctp "Throughput of Association 175" ETV
vector 182 Crocetta.gNodeB15.sctp "Fast Recovery State 175:192.168.48.2" ETV
vector 183 Crocetta.gNodeB16.sctp "Throughput of Association 179" ETV
vector 184 Crocetta.gNodeB16.sctp "Fast Recovery State 179:192.168.46.2" ETV
vector 185 Crocetta.gNodeB16.sctp "Throughput of Association 180" ETV
vector 186 Crocetta.gNodeB16.sctp "Fast Recovery State 180:192.168.50.2" ETV
vector 187 Crocetta.gNodeB17.sctp "Throughput of Association 184" ETV
vector 188 Crocetta.gNodeB17.sctp "Fast Recovery State 184:192.168.48.2" ETV
vector 189 Crocetta.gNodeB17.sctp "Throughput of Association 185" ETV
vector 190 Crocetta.gNodeB17.sctp "Fast Recovery State 185:192.168.19.1" ETV
vector 191 Crocetta.gNodeB1.x2ppp[0].ppp rcvdPkFromHl:vector(packetBytes) ETV
attr interpolationmode none
attr source packetReceivedFromUpper
attr title "packets received from higher layer, vector(packetBytes)"
vector 192 Crocetta.gNodeB1.x2ppp[0].ppp.queue packetPushed:vector(packetBytes) ETV
attr interpolationmode none
attr title "packet pushed, vector(packetBytes)"
vector 193 Crocetta.gNodeB1.x2ppp[0].ppp.queue queueLength:vector ETV
attr autoWarmupFilter false
attr interpolationmode sample-hold
attr source "warmup(count(packetPushed) - count(packetPulled) - count(packetRemoved) - count(packetDropped))"
attr title "queue length, vector"
attr type int
vector 194 Crocetta.gNodeB1.x2ppp[0].ppp.queue packetPulled:vector(packetBytes) ETV
attr interpolationmode none
attr title "packet pulled, vector(packetBytes)"
vector 195 Crocetta.gNodeB1.x2ppp[0].ppp.queue queueingTime:vector ETV
attr interpolationmode none
attr source queueingTime(packetPulled)
attr title "queueing times, vector"
attr unit s
vector 196 Crocetta.gNodeB1.x2ppp[0].ppp txPk:vector(packetBytes) ETV
attr interpolationmode none
attr source packetSentToLower
attr title "packets transmitted, vector(packetBytes)"
vector 197 Crocetta.gNodeB1.x2ppp[1].ppp rcvdPkFromHl:vector(packetBytes) ETV
attr interpolationmode none
attr source packetReceivedFromUpper
attr title "packets received from higher layer, vector(packetBytes)"
vector 198 Crocetta.gNodeB1.x2ppp[1].ppp.queue packetPushed:vector(packetBytes) ETV
attr interpolationmode none
attr title "packet pushed, vector(packetBytes)"
vector 199 Crocetta.gNodeB1.x2ppp[1].ppp.queue queueLength:vector ETV
attr autoWarmupFilter false
attr interpolationmode sample-hold
attr source "warmup(count(packetPushed) - count(packetPulled) - count(packetRemoved) - count(packetDropped))"
attr title "queue length, vector"
attr type int
vector 200 Crocetta.gNodeB1.x2ppp[1].ppp.queue packetPulled:vector(packetBytes) ETV
attr interpolationmode none
attr title "packet pulled, vector(packetBytes)"
vector 201 Crocetta.gNodeB1.x2ppp[1].ppp.queue queueingTime:vector ETV
attr interpolationmode none
attr source queueingTime(packetPulled)
attr title "queueing times, vector"
attr unit s
vector 202 Crocetta.gNodeB1.x2ppp[1].ppp txPk:vector(packetBytes) ETV
attr interpolationmode none
attr source packetSentToLower
attr title "packets transmitted, vector(packetBytes)"
vector 203 Crocetta.gNodeB2.x2ppp[0].ppp rcvdPkFromHl:vector(packetBytes) ETV
attr interpolationmode none
attr source packetReceivedFromUpper
attr title "packets received from higher layer, vector(packetBytes)"
vector 204 Crocetta.gNodeB2.x2ppp[0].ppp.queue packetPushed:vector(packetBytes) ETV
attr interpolationmode none
attr title "packet pushed, vector(packetBytes)"
vector 205 Crocetta.gNodeB2.x2ppp[0].ppp.queue queueLength:vector ETV
attr autoWarmupFilter false
attr interpolationmode sample-hold
attr source "warmup(count(packetPushed) - count(packetPulled) - count(packetRemoved) - count(packetDropped))"
attr title "queue length, vector"
attr type int
vector 206 Crocetta.gNodeB2.x2ppp[0].ppp.queue packetPulled:vector(packetBytes) ETV
attr interpolationmode none
attr title "packet pulled, vector(packetBytes)"
vector 207 Crocetta.gNodeB2.x2ppp[0].ppp.queue queueingTime:vector ETV
attr interpolationmode none
attr source queueingTime(packetPulled)
attr title "queueing times, vector"
attr unit s
vector 208 Crocetta.gNodeB2.x2ppp[0].ppp txPk:vector(packetBytes) ETV
attr interpolationmode none
attr source packetSentToLower
attr title "packets transmitted, vector(packetBytes)"
vector 209 Crocetta.gNodeB2.x2ppp[1].ppp rcvdPkFromHl:vector(packetBytes) ETV
attr interpolationmode none
attr source packetReceivedFromUpper
attr title "packets received from higher layer, vector(packetBytes)"
vector 210 Crocetta.gNodeB2.x2ppp[1].ppp.queue packetPushed:vector(packetBytes) ETV
attr interpolationmode none
attr title "packet pushed, vector(packetBytes)"
vector 211 Crocetta.gNodeB2.x2ppp[1].ppp.queue queueLength:vector ETV
attr autoWarmupFilter false
attr interpolationmode sample-hold
attr source "warmup(count(packetPushed) - count(packetPulled) - count(packetRemoved) - count(packetDropped))"
attr title "queue length, vector"
attr type int
vector 212 Crocetta.gNodeB2.x2ppp[1].ppp.queue packetPulled:vector(packetBytes) ETV
attr interpolationmode none
attr title "packet pulled, vector(packetBytes)"
vector 213 Crocetta.gNodeB2.x2ppp[1].ppp.queue queueingTime:vector ETV
attr interpolationmode none
attr source queueingTime(packetPulled)
attr title "queueing times, vector"
attr unit s
vector 214 Crocetta.gNodeB2.x2ppp[1].ppp txPk:vector(packetBytes) ETV
attr interpolationmode none
attr source packetSentToLower
attr title "packets transmitted, vector(packetBytes)"
vector 215 Crocetta.gNodeB3.x2ppp[0].ppp rcvdPkFromHl:vector(packetBytes) ETV
attr interpolationmode none
attr source packetReceivedFromUpper
attr title "packets received from higher layer, vector(packetBytes)"
vector 216 Crocetta.gNodeB3.x2ppp[0].ppp.queue packetPushed:vector(packetBytes) ETV
attr interpolationmode none
attr title "packet pushed, vector(packetBytes)"
vector 217 Crocetta.gNodeB3.x2ppp[0].ppp.queue queueLength:vector ETV
attr autoWarmupFilter false
attr interpolationmode sample-hold
attr source "warmup(count(packetPushed) - count(packetPulled) - count(packetRemoved) - count(packetDropped))"
attr title "queue length, vector"
attr type int
vector 218 Crocetta.gNodeB3.x2ppp[0].ppp.queue packetPulled:vector(packetBytes) ETV
attr interpolationmode none
attr title "packet pulled, vector(packetBytes)"
vector 219 Crocetta.gNodeB3.x2ppp[0].ppp.queue queueingTime:vector ETV
attr interpolationmode none
attr source queueingTime(packetPulled)
attr title "queueing times, vector"
attr unit s
vector 220 Crocetta.gNodeB3.x2ppp[0].ppp txPk:vector(packetBytes) ETV
attr interpolationmode none
attr source packetSentToLower
attr title "packets transmitted, vector(packetBytes)"
vector 221 Crocetta.gNodeB3.x2ppp[1].ppp rcvdPkFromHl:vector(packetBytes) ETV
attr interpolationmode none
attr source packetReceivedFromUpper
attr title "packets received from higher layer, vector(packetBytes)"
vector 222 Crocetta.gNodeB3.x2ppp[1].ppp.queue packetPushed:vector(packetBytes) ETV
attr interpolationmode none
attr title "packet pushed, vector(packetBytes)"
vector 223 Crocetta.gNodeB3.x2ppp[1].ppp.queue queueLength:vector ETV
attr autoWarmupFilter false
attr interpolationmode sample-hold
attr source "warmup(count(packetPushed) - count(packetPulled) - count(packetRemoved) - count(packetDropped))"
attr title "queue length, vector"
attr type int
vector 224 Crocetta.gNodeB3.x2ppp[1].ppp.queue packetPulled:vector(packetBytes) ETV
attr interpolationmode none
attr title "packet pulled, vector(packetBytes)"
vector 225 Crocetta.gNodeB3.x2ppp[1].ppp.queue queueingTime:vector ETV
attr interpolationmode none
attr source queueingTime(packetPulled)
attr title "queueing times, vector"
attr unit s
vector 226 Crocetta.gNodeB3.x2ppp[1].ppp txPk:vector(packetBytes) ETV
attr interpolationmode none
attr source packetSentToLower
attr title "packets transmitted, vector(packetBytes)"
vector 227 Crocetta.gNodeB4.x2ppp[0].ppp rcvdPkFromHl:vector(packetBytes) ETV
attr interpolationmode none
attr source packetReceivedFromUpper
attr title "packets received from higher layer, vector(packetBytes)"
vector 228 Crocetta.gNodeB4.x2ppp[0].ppp.queue packetPushed:vector(packetBytes) ETV
attr interpolationmode none
attr title "packet pushed, vector(packetBytes)"
vector 229 Crocetta.gNodeB4.x2ppp[0].ppp.queue queueLength:vector ETV
attr autoWarmupFilter false
attr interpolationmode sample-hold
attr source "warmup(count(packetPushed) - count(packetPulled) - count(packetRemoved) - count(packetDropped))"
attr title "queue length, vector"
attr type int
vector 230 Crocetta.gNodeB4.x2ppp[0].ppp.queue packetPulled:vector(packetBytes) ETV
attr interpolationmode none
attr title "packet pulled, vector(packetBytes)"
vector 231 Crocetta.gNodeB4.x2ppp[0].ppp.queue queueingTime:vector ETV
attr interpolationmode none
attr source queueingTime(packetPulled)
attr title "queueing times, vector"
attr unit s
vector 232 Crocetta.gNodeB4.x2ppp[0].ppp txPk:vector(packetBytes) ETV
attr interpolationmode none
attr source packetSentToLower
attr title "packets transmitted, vector(packetBytes)"
vector 233 Crocetta.gNodeB4.x2ppp[1].ppp rcvdPkFromHl:vector(packetBytes) ETV
attr interpolationmode none
attr source packetReceivedFromUpper
attr title "packets received from higher layer, vector(packetBytes)"
vector 234 Crocetta.gNodeB4.x2ppp[1].ppp.queue packetPushed:vector(packetBytes) ETV
attr interpolationmode none
attr title "packet pushed, vector(packetBytes)"
vector 235 Crocetta.gNodeB4.x2ppp[1].ppp.queue queueLength:vector ETV
attr autoWarmupFilter false
attr interpolationmode sample-hold
attr source "warmup(count(packetPushed) - count(packetPulled) - count(packetRemoved) - count(packetDropped))"
attr title "queue length, vector"
attr type int
vector 236 Crocetta.gNodeB4.x2ppp[1].ppp.queue packetPulled:vector(packetBytes) ETV
attr interpolationmode none
attr title "packet pulled, vector(packetBytes)"
vector 237 Crocetta.gNodeB4.x2ppp[1].ppp.queue queueingTime:vector ETV
attr interpolationmode none
attr source queueingTime(packetPulled)
attr title "queueing times, vector"
attr unit s
vector 238 Crocetta.gNodeB4.x2ppp[1].ppp txPk:vector(packetBytes) ETV
attr interpolationmode none
attr source packetSentToLower
attr title "packets transmitted, vector(packetBytes)"
vector 239 Crocetta.gNodeB5.x2ppp[0].ppp rcvdPkFromHl:vector(packetBytes) ETV
attr interpolationmode none
attr source packetReceivedFromUpper
attr title "packets received from higher layer, vector(packetBytes)"
vector 240 Crocetta.gNodeB5.x2ppp[0].ppp.queue packetPushed:vector(packetBytes) ETV
attr interpolationmode none
attr title "packet pushed, vector(packetBytes)"
vector 241 Crocetta.gNodeB5.x2ppp[0].ppp.queue queueLength:vector ETV
attr autoWarmupFilter false
attr interpolationmode sample-hold
attr source "warmup(count(packetPushed) - count(packetPulled) - count(packetRemoved) - count(packetDropped))"
attr title "queue length, vector"
attr type int
vector 242 Crocetta.gNodeB5.x2ppp[0].ppp.queue packetPulled:vector(packetBytes) ETV
attr interpolationmode none
attr title "packet pulled, vector(packetBytes)"
vector 243 Crocetta.gNodeB5.x2ppp[0].ppp.queue queueingTime:vector ETV
attr interpolationmode none
attr source queueingTime(packetPulled)
attr title "queueing times, vector"
attr unit s
vector 244 Crocetta.gNodeB5.x2ppp[0].ppp txPk:vector(packetBytes) ETV
attr interpolationmode none
attr source packetSentToLower
attr title "packets transmitted, vector(packetBytes)"
vector 245 Crocetta.gNodeB5.x2ppp[1].ppp rcvdPkFromHl:vector(packetBytes) ETV
attr interpolationmode none
attr source packetReceivedFromUpper
attr title "packets received from higher layer, vector(packetBytes)"
vector 246 Crocetta.gNodeB5.x2ppp[1].ppp.queue packetPushed:vector(packetBytes) ETV
attr interpolationmode none
attr title "packet pushed, vector(packetBytes)"
vector 247 Crocetta.gNodeB5.x2ppp[1].ppp.queue queueLength:vector ETV
attr autoWarmupFilter false
attr interpolationmode sample-hold
attr source "warmup(count(packetPushed) - count(packetPulled) - count(packetRemoved) - count(packetDropped))"
attr title "queue length, vector"
attr type int
vector 248 Crocetta.gNodeB5.x2ppp[1].ppp.queue packetPulled:vector(packetBytes) ETV
attr interpolationmode none
attr title "packet pulled, vector(packetBytes)"
vector 249 Crocetta.gNodeB5.x2ppp[1].ppp.queue queueingTime:vector ETV
attr interpolationmode none
attr source queueingTime(packetPulled)
attr title "queueing times, vector"
attr unit s
vector 250 Crocetta.gNodeB5.x2ppp[1].ppp txPk:vector(packetBytes) ETV
attr interpolationmode none
attr source packetSentToLower
attr title "packets transmitted, vector(packetBytes)"
vector 251 Crocetta.gNodeB6.x2ppp[0].ppp rcvdPkFromHl:vector(packetBytes) ETV
attr interpolationmode none
attr source packetReceivedFromUpper
attr title "packets received from higher layer, vector(packetBytes)"
vector 252 Crocetta.gNodeB6.x2ppp[0].ppp.queue packetPushed:vector(packetBytes) ETV
attr interpolationmode none
attr title "packet pushed, vector(packetBytes)"
vector 253 Crocetta.gNodeB6.x2ppp[0].ppp.queue queueLength:vector ETV
attr autoWarmupFilter false
attr interpolationmode sample-hold
attr source "warmup(count(packetPushed) - count(packetPulled) - count(packetRemoved) - count(packetDropped))"
attr title "queue length, vector"
attr type int
vector 254 Crocetta.gNodeB6.x2ppp[0].ppp.queue packetPulled:vector(packetBytes) ETV
attr interpolationmode none
attr title "packet pulled, vector(packetBytes)"
vector 255 Crocetta.gNodeB6.x2ppp[0].ppp.queue queueingTime:vector ETV
attr interpolationmode none
attr source queueingTime(packetPulled)
attr title "queueing times, vector"
attr unit s
vector 256 Crocetta.gNodeB6.x2ppp[0].ppp txPk:vector(packetBytes) ETV
attr interpolationmode none
attr source packetSentToLower
attr title "packets transmitted, vector(packetBytes)"
vector 257 Crocetta.gNodeB6.x2ppp[1].ppp rcvdPkFromHl:vector(packetBytes) ETV
attr interpolationmode none
attr source packetReceivedFromUpper
attr title "packets received from higher layer, vector(packetBytes)"
vector 258 Crocetta.gNodeB6.x2ppp[1].ppp.queue packetPushed:vector(packetBytes) ETV
attr interpolationmode none
attr title "packet pushed, vector(packetBytes)"
vector 259 Crocetta.gNodeB6.x2ppp[1].ppp.queue queueLength:vector ETV
attr autoWarmupFilter false
attr interpolationmode sample-hold
attr source "warmup(count(packetPushed) - count(packetPulled) - count(packetRemoved) - count(packetDropped))"
attr title "queue length, vector"
attr type int
vector 260 Crocetta.gNodeB6.x2ppp[1].ppp.queue packetPulled:vector(packetBytes) ETV
attr interpolationmode none
attr title "packet pulled, vector(packetBytes)"
vector 261 Crocetta.gNodeB6.x2ppp[1].ppp.queue queueingTime:vector ETV
attr interpolationmode none
attr source queueingTime(packetPulled)
attr title "queueing times, vector"
attr unit s
vector 262 Crocetta.gNodeB6.x2ppp[1].ppp txPk:vector(packetBytes) ETV
attr interpolationmode none
attr source packetSentToLower
attr title "packets transmitted, vector(packetBytes)"
vector 263 Crocetta.gNodeB7.x2ppp[0].ppp rcvdPkFromHl:vector(packetBytes) ETV
attr interpolationmode none
attr source packetReceivedFromUpper
attr title "packets received from higher layer, vector(packetBytes)"
vector 264 Crocetta.gNodeB7.x2ppp[0].ppp.queue packetPushed:vector(packetBytes) ETV
attr interpolationmode none
attr title "packet pushed, vector(packetBytes)"
vector 265 Crocetta.gNodeB7.x2ppp[0].ppp.queue queueLength:vector ETV
attr autoWarmupFilter false
attr interpolationmode sample-hold
attr source "warmup(count(packetPushed) - count(packetPulled) - count(packetRemoved) - count(packetDropped))"
attr title "queue length, vector"
attr type int
vector 266 Crocetta.gNodeB7.x2ppp[0].ppp.queue packetPulled:vector(packetBytes) ETV
attr interpolationmode none
attr title "packet pulled, vector(packetBytes)"
vector 267 Crocetta.gNodeB7.x2ppp[0].ppp.queue queueingTime:vector ETV
attr interpolationmode none
attr source queueingTime(packetPulled)
attr title "queueing times, vector"
attr unit s
vector 268 Crocetta.gNodeB7.x2ppp[0].ppp txPk:vector(packetBytes) ETV
attr interpolationmode none
attr source packetSentToLower
attr title "packets transmitted, vector(packetBytes)"
vector 269 Crocetta.gNodeB7.x2ppp[1].ppp rcvdPkFromHl:vector(packetBytes) ETV
attr interpolationmode none
attr source packetReceivedFromUpper
attr title "packets received from higher layer, vector(packetBytes)"
vector 270 Crocetta.gNodeB7.x2ppp[1].ppp.queue packetPushed:vector(packetBytes) ETV
attr interpolationmode none
attr title "packet pushed, vector(packetBytes)"
vector 271 Crocetta.gNodeB7.x2ppp[1].ppp.queue queueLength:vector ETV
attr autoWarmupFilter false
attr interpolationmode sample-hold
attr source "warmup(count(packetPushed) - count(packetPulled) - count(packetRemoved) - count(packetDropped))"
attr title "queue length, vector"
attr type int
vector 272 Crocetta.gNodeB7.x2ppp[1].ppp.queue packetPulled:vector(packetBytes) ETV
attr interpolationmode none
attr title "packet pulled, vector(packetBytes)"
vector 273 Crocetta.gNodeB7.x2ppp[1].ppp.queue queueingTime:vector ETV
attr interpolationmode none
attr source queueingTime(packetPulled)
attr title "queueing times, vector"
attr unit s
vector 274 Crocetta.gNodeB7.x2ppp[1].ppp txPk:vector(packetBytes) ETV
attr interpolationmode none
attr source packetSentToLower
attr title "packets transmitted, vector(packetBytes)"
vector 275 Crocetta.gNodeB8.x2ppp[0].ppp rcvdPkFromHl:vector(packetBytes) ETV
attr interpolationmode none
attr source packetReceivedFromUpper
attr title "packets received from higher layer, vector(packetBytes)"
vector 276 Crocetta.gNodeB8.x2ppp[0].ppp.queue packetPushed:vector(packetBytes) ETV
attr interpolationmode none
attr title "packet pushed, vector(packetBytes)"
vector 277 Crocetta.gNodeB8.x2ppp[0].ppp.queue queueLength:vector ETV
attr autoWarmupFilter false
attr interpolationmode sample-hold
attr source "warmup(count(packetPushed) - count(packetPulled) - count(packetRemoved) - count(packetDropped))"
attr title "queue length, vector"
attr type int
vector 278 Crocetta.gNodeB8.x2ppp[0].ppp.queue packetPulled:vector(packetBytes) ETV
attr interpolationmode none
attr title "packet pulled, vector(packetBytes)"
vector 279 Crocetta.gNodeB8.x2ppp[0].ppp.queue queueingTime:vector ETV
attr interpolationmode none
attr source queueingTime(packetPulled)
attr title "queueing times, vector"
attr unit s
vector 280 Crocetta.gNodeB8.x2ppp[0].ppp txPk:vector(packetBytes) ETV
attr interpolationmode none
attr source packetSentToLower
attr title "packets transmitted, vector(packetBytes)"
vector 281 Crocetta.gNodeB8.x2ppp[1].ppp rcvdPkFromHl:vector(packetBytes) ETV
attr interpolationmode none
attr source packetReceivedFromUpper
attr title "packets received from higher layer, vector(packetBytes)"
vector 282 Crocetta.gNodeB8.x2ppp[1].ppp.queue packetPushed:vector(packetBytes) ETV
attr interpolationmode none
attr title "packet pushed, vector(packetBytes)"
vector 283 Crocetta.gNodeB8.x2ppp[1].ppp.queue queueLength:vector ETV
attr autoWarmupFilter false
attr interpolationmode sample-hold
attr source "warmup(count(packetPushed) - count(packetPulled) - count(packetRemoved) - count(packetDropped))"
attr title "queue length, vector"
attr type int
vector 284 Crocetta.gNodeB8.x2ppp[1].ppp.queue packetPulled:vector(packetBytes) ETV
attr interpolationmode none
attr title "packet pulled, vector(packetBytes)"
vector 285 Crocetta.gNodeB8.x2ppp[1].ppp.queue queueingTime:vector ETV
attr interpolationmode none
attr source queueingTime(packetPulled)
attr title "queueing times, vector"
attr unit s
vector 286 Crocetta.gNodeB8.x2ppp[1].ppp txPk:vector(packetBytes) ETV
attr interpolationmode none
attr source packetSentToLower
attr title "packets transmitted, vector(packetBytes)"
vector 287 Crocetta.gNodeB9.x2ppp[0].ppp rcvdPkFromHl:vector(packetBytes) ETV
attr interpolationmode none
attr source packetReceivedFromUpper
attr title "packets received from higher layer, vector(packetBytes)"
vector 288 Crocetta.gNodeB9.x2ppp[0].ppp.queue packetPushed:vector(packetBytes) ETV
attr interpolationmode none
attr title "packet pushed, vector(packetBytes)"
vector 289 Crocetta.gNodeB9.x2ppp[0].ppp.queue queueLength:vector ETV
attr autoWarmupFilter false
attr interpolationmode sample-hold
attr source "warmup(count(packetPushed) - count(packetPulled) - count(packetRemoved) - count(packetDropped))"
attr title "queue length, vector"
attr type int
vector 290 Crocetta.gNodeB9.x2ppp[0].ppp.queue packetPulled:vector(packetBytes) ETV
attr interpolationmode none
attr title "packet pulled, vector(packetBytes)"
vector 291 Crocetta.gNodeB9.x2ppp[0].ppp.queue queueingTime:vector ETV
attr interpolationmode none
attr source queueingTime(packetPulled)
attr title "queueing times, vector"
attr unit s
vector 292 Crocetta.gNodeB9.x2ppp[0].ppp txPk:vector(packetBytes) ETV
attr interpolationmode none
attr source packetSentToLower
attr title "packets transmitted, vector(packetBytes)"
vector 293 Crocetta.gNodeB9.x2ppp[1].ppp rcvdPkFromHl:vector(packetBytes) ETV
attr interpolationmode none
attr source packetReceivedFromUpper
attr title "packets received from higher layer, vector(packetBytes)"
vector 294 Crocetta.gNodeB9.x2ppp[1].ppp.queue packetPushed:vector(packetBytes) ETV
attr interpolationmode none
attr title "packet pushed, vector(packetBytes)"
vector 295 Crocetta.gNodeB9.x2ppp[1].ppp.queue queueLength:vector ETV
attr autoWarmupFilter false
attr interpolationmode sample-hold
attr source "warmup(count(packetPushed) - count(packetPulled) - count(packetRemoved) - count(packetDropped))"
attr title "queue length, vector"
attr type int
vector 296 Crocetta.gNodeB9.x2ppp[1].ppp.queue packetPulled:vector(packetBytes) ETV
attr interpolationmode none
attr title "packet pulled, vector(packetBytes)"
vector 297 Crocetta.gNodeB9.x2ppp[1].ppp.queue queueingTime:vector ETV
attr interpolationmode none
attr source queueingTime(packetPulled)
attr title "queueing times, vector"
attr unit s
vector 298 Crocetta.gNodeB9.x2ppp[1].ppp txPk:vector(packetBytes) ETV
attr interpolationmode none
attr source packetSentToLower
attr title "packets transmitted, vector(packetBytes)"
vector 299 Crocetta.gNodeB10.x2ppp[0].ppp rcvdPkFromHl:vector(packetBytes) ETV
attr interpolationmode none
attr source packetReceivedFromUpper
attr title "packets received from higher layer, vector(packetBytes)"
vector 300 Crocetta.gNodeB10.x2ppp[0].ppp.queue packetPushed:vector(packetBytes) ETV
attr interpolationmode none
attr title "packet pushed, vector(packetBytes)"
vector 301 Crocetta.gNodeB10.x2ppp[0].ppp.queue queueLength:vector ETV
attr autoWarmupFilter false
attr interpolationmode sample-hold
attr source "warmup(count(packetPushed) - count(packetPulled) - count(packetRemoved) - count(packetDropped))"
attr title "queue length, vector"
attr type int
vector 302 Crocetta.gNodeB10.x2ppp[0].ppp.queue packetPulled:vector(packetBytes) ETV
attr interpolationmode none
attr title "packet pulled, vector(packetBytes)"
vector 303 Crocetta.gNodeB10.x2ppp[0].ppp.queue queueingTime:vector ETV
attr interpolationmode none
attr source queueingTime(packetPulled)
attr title "queueing times, vector"
attr unit s
vector 304 Crocetta.gNodeB10.x2ppp[0].ppp txPk:vector(packetBytes) ETV
attr interpolationmode none
attr source packetSentToLower
attr title "packets transmitted, vector(packetBytes)"
vector 305 Crocetta.gNodeB10.x2ppp[1].ppp rcvdPkFromHl:vector(packetBytes) ETV
attr interpolationmode none
attr source packetReceivedFromUpper
attr title "packets received from higher layer, vector(packetBytes)"
vector 306 Crocetta.gNodeB10.x2ppp[1].ppp.queue packetPushed:vector(packetBytes) ETV
attr interpolationmode none
attr title "packet pushed, vector(packetBytes)"
vector 307 Crocetta.gNodeB10.x2ppp[1].ppp.queue queueLength:vector ETV
attr autoWarmupFilter false
attr interpolationmode sample-hold
attr source "warmup(count(packetPushed) - count(packetPulled) - count(packetRemoved) - count(packetDropped))"
attr title "queue length, vector"
attr type int
vector 308 Crocetta.gNodeB10.x2ppp[1].ppp.queue packetPulled:vector(packetBytes) ETV
attr interpolationmode none
attr title "packet pulled, vector(packetBytes)"
vector 309 Crocetta.gNodeB10.x2ppp[1].ppp.queue queueingTime:vector ETV
attr interpolationmode none
attr source queueingTime(packetPulled)
attr title "queueing times, vector"
attr unit s
vector 310 Crocetta.gNodeB10.x2ppp[1].ppp txPk:vector(packetBytes) ETV
attr interpolationmode none
attr source packetSentToLower
attr title "packets transmitted, vector(packetBytes)"
vector 311 Crocetta.gNodeB11.x2ppp[0].ppp rcvdPkFromHl:vector(packetBytes) ETV
attr interpolationmode none
attr source packetReceivedFromUpper
attr title "packets received from higher layer, vector(packetBytes)"
vector 312 Crocetta.gNodeB11.x2ppp[0].ppp.queue packetPushed:vector(packetBytes) ETV
attr interpolationmode none
attr title "packet pushed, vector(packetBytes)"
vector 313 Crocetta.gNodeB11.x2ppp[0].ppp.queue queueLength:vector ETV
attr autoWarmupFilter false
attr interpolationmode sample-hold
attr source "warmup(count(packetPushed) - count(packetPulled) - count(packetRemoved) - count(packetDropped))"
attr title "queue length, vector"
attr type int
vector 314 Crocetta.gNodeB11.x2ppp[0].ppp.queue packetPulled:vector(packetBytes) ETV
attr interpolationmode none
attr title "packet pulled, vector(packetBytes)"
vector 315 Crocetta.gNodeB11.x2ppp[0].ppp.queue queueingTime:vector ETV
attr interpolationmode none
attr source queueingTime(packetPulled)
attr title "queueing times, vector"
attr unit s
vector 316 Crocetta.gNodeB11.x2ppp[0].ppp txPk:vector(packetBytes) ETV
attr interpolationmode none
attr source packetSentToLower
attr title "packets transmitted, vector(packetBytes)"
vector 317 Crocetta.gNodeB11.x2ppp[1].ppp rcvdPkFromHl:vector(packetBytes) ETV
attr interpolationmode none
attr source packetReceivedFromUpper
attr title "packets received from higher layer, vector(packetBytes)"
vector 318 Crocetta.gNodeB11.x2ppp[1].ppp.queue packetPushed:vector(packetBytes) ETV
attr interpolationmode none
attr title "packet pushed, vector(packetBytes)"
vector 319 Crocetta.gNodeB11.x2ppp[1].ppp.queue queueLength:vector ETV
attr autoWarmupFilter false
attr interpolationmode sample-hold
attr source "warmup(count(packetPushed) - count(packetPulled) - count(packetRemoved) - count(packetDropped))"
attr title "queue length, vector"
attr type int
vector 320 Crocetta.gNodeB11.x2ppp[1].ppp.queue packetPulled:vector(packetBytes) ETV
attr interpolationmode none
attr title "packet pulled, vector(packetBytes)"
vector 321 Crocetta.gNodeB11.x2ppp[1].ppp.queue queueingTime:vector ETV
attr interpolationmode none
attr source queueingTime(packetPulled)
attr title "queueing times, vector"
attr unit s
vector 322 Crocetta.gNodeB11.x2ppp[1].ppp txPk:vector(packetBytes) ETV
attr interpolationmode none
attr source packetSentToLower
attr title "packets transmitted, vector(packetBytes)"
vector 323 Crocetta.gNodeB12.x2ppp[0].ppp rcvdPkFromHl:vector(packetBytes) ETV
attr interpolationmode none
attr source packetReceivedFromUpper
attr title "packets received from higher layer, vector(packetBytes)"
vector 324 Crocetta.gNodeB12.x2ppp[0].ppp.queue packetPushed:vector(packetBytes) ETV
attr interpolationmode none
attr title "packet pushed, vector(packetBytes)"
vector 325 Crocetta.gNodeB12.x2ppp[0].ppp.queue queueLength:vector ETV
attr autoWarmupFilter false
attr interpolationmode sample-hold
attr source "warmup(count(packetPushed) - count(packetPulled) - count(packetRemoved) - count(packetDropped))"
attr title "queue length, vector"
attr type int
vector 326 Crocetta.gNodeB12.x2ppp[0].ppp.queue packetPulled:vector(packetBytes) ETV
attr interpolationmode none
attr title "packet pulled, vector(packetBytes)"
vector 327 Crocetta.gNodeB12.x2ppp[0].ppp.queue queueingTime:vector ETV
attr interpolationmode none
attr source queueingTime(packetPulled)
attr title "queueing times, vector"
attr unit s
vector 328 Crocetta.gNodeB12.x2ppp[0].ppp txPk:vector(packetBytes) ETV
attr interpolationmode none
attr source packetSentToLower
attr title "packets transmitted, vector(packetBytes)"
vector 329 Crocetta.gNodeB12.x2ppp[1].ppp rcvdPkFromHl:vector(packetBytes) ETV
attr interpolationmode none
attr source packetReceivedFromUpper
attr title "packets received from higher layer, vector(packetBytes)"
vector 330 Crocetta.gNodeB12.x2ppp[1].ppp.queue packetPushed:vector(packetBytes) ETV
attr interpolationmode none
attr title "packet pushed, vector(packetBytes)"
vector 331 Crocetta.gNodeB12.x2ppp[1].ppp.queue queueLength:vector ETV
attr autoWarmupFilter false
attr interpolationmode sample-hold
attr source "warmup(count(packetPushed) - count(packetPulled) - count(packetRemoved) - count(packetDropped))"
attr title "queue length, vector"
attr type int
vector 332 Crocetta.gNodeB12.x2ppp[1].ppp.queue packetPulled:vector(packetBytes) ETV
attr interpolationmode none
attr title "packet pulled, vector(packetBytes)"
vector 333 Crocetta.gNodeB12.x2ppp[1].ppp.queue queueingTime:vector ETV
attr interpolationmode none
attr source queueingTime(packetPulled)
attr title "queueing times, vector"
attr unit s
vector 334 Crocetta.gNodeB12.x2ppp[1].ppp txPk:vector(packetBytes) ETV
attr interpolationmode none
attr source packetSentToLower
attr title "packets transmitted, vector(packetBytes)"
vector 335 Crocetta.gNodeB13.x2ppp[0].ppp rcvdPkFromHl:vector(packetBytes) ETV
attr interpolationmode none
attr source packetReceivedFromUpper
attr title "packets received from higher layer, vector(packetBytes)"
vector 336 Crocetta.gNodeB13.x2ppp[0].ppp.queue packetPushed:vector(packetBytes) ETV
attr interpolationmode none
attr title "packet pushed, vector(packetBytes)"
vector 337 Crocetta.gNodeB13.x2ppp[0].ppp.queue queueLength:vector ETV
attr autoWarmupFilter false
attr interpolationmode sample-hold
attr source "warmup(count(packetPushed) - count(packetPulled) - count(packetRemoved) - count(packetDropped))"
attr title "queue length, vector"
attr type int
vector 338 Crocetta.gNodeB13.x2ppp[0].ppp.queue packetPulled:vector(packetBytes) ETV
attr interpolationmode none
attr title "packet pulled, vector(packetBytes)"
vector 339 Crocetta.gNodeB13.x2ppp[0].ppp.queue queueingTime:vector ETV
attr interpolationmode none
attr source queueingTime(packetPulled)
attr title "queueing times, vector"
attr unit s
vector 340 Crocetta.gNodeB13.x2ppp[0].ppp txPk:vector(packetBytes) ETV
attr interpolationmode none
attr source packetSentToLower
attr title "packets transmitted, vector(packetBytes)"
vector 341 Crocetta.gNodeB13.x2ppp[1].ppp rcvdPkFromHl:vector(packetBytes) ETV
attr interpolationmode none
attr source packetReceivedFromUpper
attr title "packets received from higher layer, vector(packetBytes)"
vector 342 Crocetta.gNodeB13.x2ppp[1].ppp.queue packetPushed:vector(packetBytes) ETV
attr interpolationmode none
attr title "packet pushed, vector(packetBytes)"
vector 343 Crocetta.gNodeB13.x2ppp[1].ppp.queue queueLength:vector ETV
attr autoWarmupFilter false
attr interpolationmode sample-hold
attr source "warmup(count(packetPushed) - count(packetPulled) - count(packetRemoved) - count(packetDropped))"
attr title "queue length, vector"
attr type int
vector 344 Crocetta.gNodeB13.x2ppp[1].ppp.queue packetPulled:vector(packetBytes) ETV
attr interpolationmode none
attr title "packet pulled, vector(packetBytes)"
vector 345 Crocetta.gNodeB13.x2ppp[1].ppp.queue queueingTime:vector ETV
attr interpolationmode none
attr source queueingTime(packetPulled)
attr title "queueing times, vector"
attr unit s
vector 346 Crocetta.gNodeB13.x2ppp[1].ppp txPk:vector(packetBytes) ETV
attr interpolationmode none
attr source packetSentToLower
attr title "packets transmitted, vector(packetBytes)"
vector 347 Crocetta.gNodeB14.x2ppp[0].ppp rcvdPkFromHl:vector(packetBytes) ETV
attr interpolationmode none
attr source packetReceivedFromUpper
attr title "packets received from higher layer, vector(packetBytes)"
vector 348 Crocetta.gNodeB14.x2ppp[0].ppp.queue packetPushed:vector(packetBytes) ETV
attr interpolationmode none
attr title "packet pushed, vector(packetBytes)"
vector 349 Crocetta.gNodeB14.x2ppp[0].ppp.queue queueLength:vector ETV
attr autoWarmupFilter false
attr interpolationmode sample-hold
attr source "warmup(count(packetPushed) - count(packetPulled) - count(packetRemoved) - count(packetDropped))"
attr title "queue length, vector"
attr type int
vector 350 Crocetta.gNodeB14.x2ppp[0].ppp.queue packetPulled:vector(packetBytes) ETV
attr interpolationmode none
attr title "packet pulled, vector(packetBytes)"
vector 351 Crocetta.gNodeB14.x2ppp[0].ppp.queue queueingTime:vector ETV
attr interpolationmode none
attr source queueingTime(packetPulled)
attr title "queueing times, vector"
attr unit s
vector 352 Crocetta.gNodeB14.x2ppp[0].ppp txPk:vector(packetBytes) ETV
attr interpolationmode none
attr source packetSentToLower
attr title "packets transmitted, vector(packetBytes)"
vector 353 Crocetta.gNodeB14.x2ppp[1].ppp rcvdPkFromHl:vector(packetBytes) ETV
attr interpolationmode none
attr source packetReceivedFromUpper
attr title "packets received from higher layer, vector(packetBytes)"
vector 354 Crocetta.gNodeB14.x2ppp[1].ppp.queue packetPushed:vector(packetBytes) ETV
attr interpolationmode none
attr title "packet pushed, vector(packetBytes)"
vector 355 Crocetta.gNodeB14.x2ppp[1].ppp.queue queueLength:vector ETV
attr autoWarmupFilter false
attr interpolationmode sample-hold
attr source "warmup(count(packetPushed) - count(packetPulled) - count(packetRemoved) - count(packetDropped))"
attr title "queue length, vector"
attr type int
vector 356 Crocetta.gNodeB14.x2ppp[1].ppp.queue packetPulled:vector(packetBytes) ETV
attr interpolationmode none
attr title "packet pulled, vector(packetBytes)"
vector 357 Crocetta.gNodeB14.x2ppp[1].ppp.queue queueingTime:vector ETV
attr interpolationmode none
attr source queueingTime(packetPulled)
attr title "queueing times, vector"
attr unit s
vector 358 Crocetta.gNodeB14.x2ppp[1].ppp txPk:vector(packetBytes) ETV
attr interpolationmode none
attr source packetSentToLower
attr title "packets transmitted, vector(packetBytes)"
vector 359 Crocetta.gNodeB15.x2ppp[0].ppp rcvdPkFromHl:vector(packetBytes) ETV
attr interpolationmode none
attr source packetReceivedFromUpper
attr title "packets received from higher layer, vector(packetBytes)"
vector 360 Crocetta.gNodeB15.x2ppp[0].ppp.queue packetPushed:vector(packetBytes) ETV
attr interpolationmode none
attr title "packet pushed, vector(packetBytes)"
vector 361 Crocetta.gNodeB15.x2ppp[0].ppp.queue queueLength:vector ETV
attr autoWarmupFilter false
attr interpolationmode sample-hold
attr source "warmup(count(packetPushed) - count(packetPulled) - count(packetRemoved) - count(packetDropped))"
attr title "queue length, vector"
attr type int
vector 362 Crocetta.gNodeB15.x2ppp[0].ppp.queue packetPulled:vector(packetBytes) ETV
attr interpolationmode none
attr title "packet pulled, vector(packetBytes)"
vector 363 Crocetta.gNodeB15.x2ppp[0].ppp.queue queueingTime:vector ETV
attr interpolationmode none
attr source queueingTime(packetPulled)
attr title "queueing times, vector"
attr unit s
vector 364 Crocetta.gNodeB15.x2ppp[0].ppp txPk:vector(packetBytes) ETV
attr interpolationmode none
attr source packetSentToLower
attr title "packets transmitted, vector(packetBytes)"
vector 365 Crocetta.gNodeB15.x2ppp[1].ppp rcvdPkFromHl:vector(packetBytes) ETV
attr interpolationmode none
attr source packetReceivedFromUpper
attr title "packets received from higher layer, vector(packetBytes)"
vector 366 Crocetta.gNodeB15.x2ppp[1].ppp.queue packetPushed:vector(packetBytes) ETV
attr interpolationmode none
attr title "packet pushed, vector(packetBytes)"
vector 367 Crocetta.gNodeB15.x2ppp[1].ppp.queue queueLength:vector ETV
attr autoWarmupFilter false
attr interpolationmode sample-hold
attr source "warmup(count(packetPushed) - count(packetPulled) - count(packetRemoved) - count(packetDropped))"
attr title "queue length, vector"
attr type int
vector 368 Crocetta.gNodeB15.x2ppp[1].ppp.queue packetPulled:vector(packetBytes) ETV
attr interpolationmode none
attr title "packet pulled, vector(packetBytes)"
vector 369 Crocetta.gNodeB15.x2ppp[1].ppp.queue queueingTime:vector ETV
attr interpolationmode none
attr source queueingTime(packetPulled)
attr title "queueing times, vector"
attr unit s
vector 370 Crocetta.gNodeB15.x2ppp[1].ppp txPk:vector(packetBytes) ETV
attr interpolationmode none
attr source packetSentToLower
attr title "packets transmitted, vector(packetBytes)"
vector 371 Crocetta.gNodeB16.x2ppp[0].ppp rcvdPkFromHl:vector(packetBytes) ETV
attr interpolationmode none
attr source packetReceivedFromUpper
attr title "packets received from higher layer, vector(packetBytes)"
vector 372 Crocetta.gNodeB16.x2ppp[0].ppp.queue packetPushed:vector(packetBytes) ETV
attr interpolationmode none
attr title "packet pushed, vector(packetBytes)"
vector 373 Crocetta.gNodeB16.x2ppp[0].ppp.queue queueLength:vector ETV
attr autoWarmupFilter false
attr interpolationmode sample-hold
attr source "warmup(count(packetPushed) - count(packetPulled) - count(packetRemoved) - count(packetDropped))"
attr title "queue length, vector"
attr type int
vector 374 Crocetta.gNodeB16.x2ppp[0].ppp.queue packetPulled:vector(packetBytes) ETV
attr interpolationmode none
attr title "packet pulled, vector(packetBytes)"
vector 375 Crocetta.gNodeB16.x2ppp[0].ppp.queue queueingTime:vector ETV
attr interpolationmode none
attr source queueingTime(packetPulled)
attr title "queueing times, vector"
attr unit s
vector 376 Crocetta.gNodeB16.x2ppp[0].ppp txPk:vector(packetBytes) ETV
attr interpolationmode none
attr source packetSentToLower
attr title "packets transmitted, vector(packetBytes)"
vector 377 Crocetta.gNodeB16.x2ppp[1].ppp rcvdPkFromHl:vector(packetBytes) ETV
attr interpolationmode none
attr source packetReceivedFromUpper
attr title "packets received from higher layer, vector(packetBytes)"
vector 378 Crocetta.gNodeB16.x2ppp[1].ppp.queue packetPushed:vector(packetBytes) ETV
attr interpolationmode none
attr title "packet pushed, vector(packetBytes)"
vector 379 Crocetta.gNodeB16.x2ppp[1].ppp.queue queueLength:vector ETV
attr autoWarmupFilter false
attr interpolationmode sample-hold
attr source "warmup(count(packetPushed) - count(packetPulled) - count(packetRemoved) - count(packetDropped))"
attr title "queue length, vector"
attr type int
vector 380 Crocetta.gNodeB16.x2ppp[1].ppp.queue packetPulled:vector(packetBytes) ETV
attr interpolationmode none
attr title "packet pulled, vector(packetBytes)"
vector 381 Crocetta.gNodeB16.x2ppp[1].ppp.queue queueingTime:vector ETV
attr interpolationmode none
attr source queueingTime(packetPulled)
attr title "queueing times, vector"
attr unit s
vector 382 Crocetta.gNodeB16.x2ppp[1].ppp txPk:vector(packetBytes) ETV
attr interpolationmode none
attr source packetSentToLower
attr title "packets transmitted, vector(packetBytes)"
vector 383 Crocetta.gNodeB17.x2ppp[0].ppp rcvdPkFromHl:vector(packetBytes) ETV
attr interpolationmode none
attr source packetReceivedFromUpper
attr title "packets received from higher layer, vector(packetBytes)"
vector 384 Crocetta.gNodeB17.x2ppp[0].ppp.queue packetPushed:vector(packetBytes) ETV
attr interpolationmode none
attr title "packet pushed, vector(packetBytes)"
vector 385 Crocetta.gNodeB17.x2ppp[0].ppp.queue queueLength:vector ETV
attr autoWarmupFilter false
attr interpolationmode sample-hold
attr source "warmup(count(packetPushed) - count(packetPulled) - count(packetRemoved) - count(packetDropped))"
attr title "queue length, vector"
attr type int
vector 386 Crocetta.gNodeB17.x2ppp[0].ppp.queue packetPulled:vector(packetBytes) ETV
attr interpolationmode none
attr title "packet pulled, vector(packetBytes)"
vector 387 Crocetta.gNodeB17.x2ppp[0].ppp.queue queueingTime:vector ETV
attr interpolationmode none
attr source queueingTime(packetPulled)
attr title "queueing times, vector"
attr unit s
vector 388 Crocetta.gNodeB17.x2ppp[0].ppp txPk:vector(packetBytes) ETV
attr interpolationmode none
attr source packetSentToLower
attr title "packets transmitted, vector(packetBytes)"
vector 389 Crocetta.gNodeB17.x2ppp[1].ppp rcvdPkFromHl:vector(packetBytes) ETV
attr interpolationmode none
attr source packetReceivedFromUpper
attr title "packets received from higher layer, vector(packetBytes)"
vector 390 Crocetta.gNodeB17.x2ppp[1].ppp.queue packetPushed:vector(packetBytes) ETV
attr interpolationmode none
attr title "packet pushed, vector(packetBytes)"
vector 391 Crocetta.gNodeB17.x2ppp[1].ppp.queue queueLength:vector ETV
attr autoWarmupFilter false
attr interpolationmode sample-hold
attr source "warmup(count(packetPushed) - count(packetPulled) - count(packetRemoved) - count(packetDropped))"
attr title "queue length, vector"
attr type int
vector 392 Crocetta.gNodeB17.x2ppp[1].ppp.queue packetPulled:vector(packetBytes) ETV
attr interpolationmode none
attr title "packet pulled, vector(packetBytes)"
vector 393 Crocetta.gNodeB17.x2ppp[1].ppp.queue queueingTime:vector ETV
attr interpolationmode none
attr source queueingTime(packetPulled)
attr title "queueing times, vector"
attr unit s
vector 394 Crocetta.gNodeB17.x2ppp[1].ppp txPk:vector(packetBytes) ETV
attr interpolationmode none
attr source packetSentToLower
attr title "packets transmitted, vector(packetBytes)"
vector 395 Crocetta.gNodeB2.x2ppp[0].ppp rxPkOk:vector(packetBytes) ETV
attr interpolationmode none
attr source rxPkOk
attr title "packets received OK, vector(packetBytes)"
vector 396 Crocetta.gNodeB2.x2ppp[0].ppp passedUpPk:vector(packetBytes) ETV
attr interpolationmode none
attr source packetSentToUpper
attr title "packets passed to higher layer, vector(packetBytes)"
vector 397 Crocetta.gNodeB17.x2ppp[1].ppp rxPkOk:vector(packetBytes) ETV
attr interpolationmode none
attr source rxPkOk
attr title "packets received OK, vector(packetBytes)"
vector 398 Crocetta.gNodeB17.x2ppp[1].ppp passedUpPk:vector(packetBytes) ETV
attr interpolationmode none
attr source packetSentToUpper
attr title "packets passed to higher layer, vector(packetBytes)"
vector 399 Crocetta.gNodeB1.x2ppp[0].ppp rxPkOk:vector(packetBytes) ETV
attr interpolationmode none
attr source rxPkOk
attr title "packets received OK, vector(packetBytes)"
vector 400 Crocetta.gNodeB1.x2ppp[0].ppp passedUpPk:vector(packetBytes) ETV
attr interpolationmode none
attr source packetSentToUpper
attr title "packets passed to higher layer, vector(packetBytes)"
vector 401 Crocetta.gNodeB3.x2ppp[0].ppp rxPkOk:vector(packetBytes) ETV
attr interpolationmode none
attr source rxPkOk
attr title "packets received OK, vector(packetBytes)"
vector 402 Crocetta.gNodeB3.x2ppp[0].ppp passedUpPk:vector(packetBytes) ETV
attr interpolationmode none
attr source packetSentToUpper
attr title "packets passed to higher layer, vector(packetBytes)"
vector 403 Crocetta.gNodeB2.x2ppp[1].ppp rxPkOk:vector(packetBytes) ETV
attr interpolationmode none
attr source rxPkOk
attr title "packets received OK, vector(packetBytes)"
vector 404 Crocetta.gNodeB2.x2ppp[1].ppp passedUpPk:vector(packetBytes) ETV
attr interpolationmode none
attr source packetSentToUpper
attr title "packets passed to higher layer, vector(packetBytes)"
vector 405 Crocetta.gNodeB4.x2ppp[0].ppp rxPkOk:vector(packetBytes) ETV
attr interpolationmode none
attr source rxPkOk
attr title "packets received OK, vector(packetBytes)"
vector 406 Crocetta.gNodeB4.x2ppp[0].ppp passedUpPk:vector(packetBytes) ETV
attr interpolationmode none
attr source packetSentToUpper
attr title "packets passed to higher layer, vector(packetBytes)"
vector 407 Crocetta.gNodeB3.x2ppp[1].ppp rxPkOk:vector(packetBytes) ETV
attr interpolationmode none
attr source rxPkOk
attr title "packets received OK, vector(packetBytes)"
vector 408 Crocetta.gNodeB3.x2ppp[1].ppp passedUpPk:vector(packetBytes) ETV
attr interpolationmode none
attr source packetSentToUpper
attr title "packets passed to higher layer, vector(packetBytes)"
vector 409 Crocetta.gNodeB5.x2ppp[0].ppp rxPkOk:vector(packetBytes) ETV
attr interpolationmode none
attr source rxPkOk
attr title "packets received OK, vector(packetBytes)"
vector 410 Crocetta.gNodeB5.x2ppp[0].ppp passedUpPk:vector(packetBytes) ETV
attr interpolationmode none
attr source packetSentToUpper
attr title "packets passed to higher layer, vector(packetBytes)"
vector 411 Crocetta.gNodeB4.x2ppp[1].ppp rxPkOk:vector(packetBytes) ETV
attr interpolationmode none
attr source rxPkOk
attr title "packets received OK, vector(packetBytes)"
vector 412 Crocetta.gNodeB4.x2ppp[1].ppp passedUpPk:vector(packetBytes) ETV
attr interpolationmode none
attr source packetSentToUpper
attr title "packets passed to higher layer, vector(packetBytes)"
vector 413 Crocetta.gNodeB6.x2ppp[0].ppp rxPkOk:vector(packetBytes) ETV
attr interpolationmode none
attr source rxPkOk
attr title "packets received OK, vector(packetBytes)"
vector 414 Crocetta.gNodeB6.x2ppp[0].ppp passedUpPk:vector(packetBytes) ETV
attr interpolationmode none
attr source packetSentToUpper
attr title "packets passed to higher layer, vector(packetBytes)"
vector 415 Crocetta.gNodeB5.x2ppp[1].ppp rxPkOk:vector(packetBytes) ETV
attr interpolationmode none
attr source rxPkOk
attr title "packets received OK, vector(packetBytes)"
vector 416 Crocetta.gNodeB5.x2ppp[1].ppp passedUpPk:vector(packetBytes) ETV
attr interpolationmode none
attr source packetSentToUpper
attr title "packets passed to higher layer, vector(packetBytes)"
vector 417 Crocetta.gNodeB7.x2ppp[0].ppp rxPkOk:vector(packetBytes) ETV
attr interpolationmode none
attr source rxPkOk
attr title "packets received OK, vector(packetBytes)"
vector 418 Crocetta.gNodeB7.x2ppp[0].ppp passedUpPk:vector(packetBytes) ETV
attr interpolationmode none
attr source packetSentToUpper
attr title "packets passed to higher layer, vector(packetBytes)"
vector 419 Crocetta.gNodeB6.x2ppp[1].ppp rxPkOk:vector(packetBytes) ETV
attr interpolationmode none
attr source rxPkOk
attr title "packets received OK, vector(packetBytes)"
vector 420 Crocetta.gNodeB6.x2ppp[1].ppp passedUpPk:vector(packetBytes) ETV
attr interpolationmode none
attr source packetSentToUpper
attr title "packets passed to higher layer, vector(packetBytes)"
vector 421 Crocetta.gNodeB8.x2ppp[0].ppp rxPkOk:vector(packetBytes) ETV
attr interpolationmode none
attr source rxPkOk
attr title "packets received OK, vector(packetBytes)"
vector 422 Crocetta.gNodeB8.x2ppp[0].ppp passedUpPk:vector(packetBytes) ETV
attr interpolationmode none
attr source packetSentToUpper
attr title "packets passed to higher layer, vector(packetBytes)"
vector 423 Crocetta.gNodeB7.x2ppp[1].ppp rxPkOk:vector(packetBytes) ETV
attr interpolationmode none
attr source rxPkOk
attr title "packets received OK, vector(packetBytes)"
vector 424 Crocetta.gNodeB7.x2ppp[1].ppp passedUpPk:vector(packetBytes) ETV
attr interpolationmode none
attr source packetSentToUpper
attr title "packets passed to higher layer, vector(packetBytes)"
vector 425 Crocetta.gNodeB9.x2ppp[0].ppp rxPkOk:vector(packetBytes) ETV
attr interpolationmode none
attr source rxPkOk
attr title "packets received OK, vector(packetBytes)"
vector 426 Crocetta.gNodeB9.x2ppp[0].ppp passedUpPk:vector(packetBytes) ETV
attr interpolationmode none
attr source packetSentToUpper
attr title "packets passed to higher layer, vector(packetBytes)"
vector 427 Crocetta.gNodeB8.x2ppp[1].ppp rxPkOk:vector(packetBytes) ETV
attr interpolationmode none
attr source rxPkOk
attr title "packets received OK, vector(packetBytes)"
vector 428 Crocetta.gNodeB8.x2ppp[1].ppp passedUpPk:vector(packetBytes) ETV
attr interpolationmode none
attr source packetSentToUpper
attr title "packets passed to higher layer, vector(packetBytes)"
vector 429 Crocetta.gNodeB10.x2ppp[0].ppp rxPkOk:vector(packetBytes) ETV
attr interpolationmode none
attr source rxPkOk
attr title "packets received OK, vector(packetBytes)"
vector 430 Crocetta.gNodeB10.x2ppp[0].ppp passedUpPk:vector(packetBytes) ETV
attr interpolationmode none
attr source packetSentToUpper
attr title "packets passed to higher layer, vector(packetBytes)"
vector 431 Crocetta.gNodeB9.x2ppp[1].ppp rxPkOk:vector(packetBytes) ETV
attr interpolationmode none
attr source rxPkOk
attr title "packets received OK, vector(packetBytes)"
vector 432 Crocetta.gNodeB9.x2ppp[1].ppp passedUpPk:vector(packetBytes) ETV
attr interpolationmode none
attr source packetSentToUpper
attr title "packets passed to higher layer, vector(packetBytes)"
vector 433 Crocetta.gNodeB11.x2ppp[0].ppp rxPkOk:vector(packetBytes) ETV
attr interpolationmode none
attr source rxPkOk
attr title "packets received OK, vector(packetBytes)"
vector 434 Crocetta.gNodeB11.x2ppp[0].ppp passedUpPk:vector(packetBytes) ETV
attr interpolationmode none
attr source packetSentToUpper
attr title "packets passed to higher layer, vector(packetBytes)"
vector 435 Crocetta.gNodeB10.x2ppp[1].ppp rxPkOk:vector(packetBytes) ETV
attr interpolationmode none
attr source rxPkOk
attr title "packets received OK, vector(packetBytes)"
vector 436 Crocetta.gNodeB10.x2ppp[1].ppp passedUpPk:vector(packetBytes) ETV
attr interpolationmode none
attr source packetSentToUpper
attr title "packets passed to higher layer, vector(packetBytes)"
vector 437 Crocetta.gNodeB12.x2ppp[0].ppp rxPkOk:vector(packetBytes) ETV
attr interpolationmode none
attr source rxPkOk
attr title "packets received OK, vector(packetBytes)"
vector 438 Crocetta.gNodeB12.x2ppp[0].ppp passedUpPk:vector(packetBytes) ETV
attr interpolationmode none
attr source packetSentToUpper
attr title "packets passed to higher layer, vector(packetBytes)"
vector 439 Crocetta.gNodeB11.x2ppp[1].ppp rxPkOk:vector(packetBytes) ETV
attr interpolationmode none
attr source rxPkOk
attr title "packets received OK, vector(packetBytes)"
vector 440 Crocetta.gNodeB11.x2ppp[1].ppp passedUpPk:vector(packetBytes) ETV
attr interpolationmode none
attr source packetSentToUpper
attr title "packets passed to higher layer, vector(packetBytes)"
vector 441 Crocetta.gNodeB13.x2ppp[0].ppp rxPkOk:vector(packetBytes) ETV
attr interpolationmode none
attr source rxPkOk
attr title "packets received OK, vector(packetBytes)"
vector 442 Crocetta.gNodeB13.x2ppp[0].ppp passedUpPk:vector(packetBytes) ETV
attr interpolationmode none
attr source packetSentToUpper
attr title "packets passed to higher layer, vector(packetBytes)"
vector 443 Crocetta.gNodeB12.x2ppp[1].ppp rxPkOk:vector(packetBytes) ETV
attr interpolationmode none
attr source rxPkOk
attr title "packets received OK, vector(packetBytes)"
vector 444 Crocetta.gNodeB12.x2ppp[1].ppp passedUpPk:vector(packetBytes) ETV
attr interpolationmode none
attr source packetSentToUpper
attr title "packets passed to higher layer, vector(packetBytes)"
vector 445 Crocetta.gNodeB14.x2ppp[0].ppp rxPkOk:vector(packetBytes) ETV
attr interpolationmode none
attr source rxPkOk
attr title "packets received OK, vector(packetBytes)"
vector 446 Crocetta.gNodeB14.x2ppp[0].ppp passedUpPk:vector(packetBytes) ETV
attr interpolationmode none
attr source packetSentToUpper
attr title "packets passed to higher layer, vector(packetBytes)"
vector 447 Crocetta.gNodeB13.x2ppp[1].ppp rxPkOk:vector(packetBytes) ETV
attr interpolationmode none
attr source rxPkOk
attr title "packets received OK, vector(packetBytes)"
vector 448 Crocetta.gNodeB13.x2ppp[1].ppp passedUpPk:vector(packetBytes) ETV
attr interpolationmode none
attr source packetSentToUpper
attr title "packets passed to higher layer, vector(packetBytes)"
vector 449 Crocetta.gNodeB15.x2ppp[0].ppp rxPkOk:vector(packetBytes) ETV
attr interpolationmode none
attr source rxPkOk
attr title "packets received OK, vector(packetBytes)"
vector 450 Crocetta.gNodeB15.x2ppp[0].ppp passedUpPk:vector(packetBytes) ETV
attr interpolationmode none
attr source packetSentToUpper
attr title "packets passed to higher layer, vector(packetBytes)"
vector 451 Crocetta.gNodeB14.x2ppp[1].ppp rxPkOk:vector(packetBytes) ETV
attr interpolationmode none
attr source rxPkOk
attr title "packets received OK, vector(packetBytes)"
vector 452 Crocetta.gNodeB14.x2ppp[1].ppp passedUpPk:vector(packetBytes) ETV
attr interpolationmode none
[...]
2735	15479569 4706 636651 802279 12.405 14.845 214 69 69 14766 1018854
2736	15484275 4706 636652 802280 12.405 14.845 214 69 69 14766 1018854
2737	15488981 4706 636652 802280 12.405 14.845 214 68 68 14552 989536
2738	15493687 4706 636656 802284 12.405 14.845 214 84 84 17976 1509984
2739	15498393 4920 636658 802286 12.405 14.845 214 104 104 22256 2314624
2740	15503313 4920 636658 802286 12.405 14.845 214 104 104 22256 2314624
2741	15508233 8992 636658 802286 12.405 14.845 428 0 1 214 214
2742	15517225 4928 636658 802286 12.405 14.845 214 104 104 22256 2314624
2743	15522153 4507 636658 802286 12.405 14.845 214 0 8.88e-08 8.88e-08 7.88544e-15
2744	15526660 4928 636658 802286 12.405 14.845 214 111 111 23754 2636694
2745	15531588 6390 636698 801218 12.4050001388 14.8280001388 213 111 111 23643 2624373
2746	15537978 6390 636698 801218 12.4050001388 14.8280001388 213 104 104 22152 2303808
2747	15544368 1476 636711 636711 12.4050003588 12.4050003588 36 0.008787173568 0.008787233568 0.316338308448 0.0027797201497741
2748	15545844 63 737885 786800 13.912 14.612 3 0 0 0 0
2751	15545907 3384 571113 696432 11.369987589475 13.266901572627 77 566.40343266174 731.51821622764 50348.258876479 33103390.97529
2752	15549291 2387 571114 696433 11.369987589475 13.266901572627 77 48 48 3696 177408
2753	15551678 2387 571117 696436 11.369987589475 13.266901572627 77 68 68 5236 356048
2754	15554065 2387 571117 696436 11.369987589475 13.266901572627 77 69 69 5313 366597
2755	15556452 2387 571118 696437 11.369987589475 13.266901572627 77 69 69 5313 366597
2756	15558839 4081 571120 696724 11.369987589475 13.271 154 71 71 10934 776314
2757	15562920 3236 571126 696750 11.37 13.271 154 1 73 5698 410410
2758	15566156 20116 570907 801968 11.366 14.84 580 12.267552096186 32.134712721539 14052.857521393 351924.30305797
2759	15586272 20039 570907 801968 11.366 14.84 580 31.021494162121 49.198476884784 23955.334488668 1000675.5377958
2760	15606311 4849 571306 697080 11.372 13.276 231 1 1 231 231
2761	15611160 1617 571362 696720 11.374 13.271 77 1 1 77 77
2762	15612777 3234 571364 696968 11.374 13.275 154 0 0 0 0
2763	15616011 1694 571364 696722 11.374 13.271 77 71 71 5467 388157
2764	15617705 1694 571393 696751 11.374 13.271 77 12 14 971 12303
2765	15619399 2673 571472 696827 11.375 13.272 77 22.128246993356 28.549892384384 1855.1715202993 45178.675873875
2766	15622072 1925 571597 696965 11.378 13.275 77 0.004 0.004 0.308 0.001232
2767	15623997 1617 571600 696968 11.378 13.275 77 0 0 0 0
2768	15625614 1925 571600 696968 11.378 13.275 77 0.004 0.004 0.308 0.001232
2769	15627539 1617 571600 696968 11.378 13.275 77 0 0 0 0
2770	15629156 1617 571723 697080 11.379 13.276 77 0 0 0 0
2771	15630773 1617 571723 697080 11.379 13.276 77 0 0 0 0
2772	15632390 1617 571723 697080 11.379 13.276 77 1 1 77 77
2773	15634007 2684 571600 696968 11.378 13.275 77 721.65582703463 1035.6976201587 68397.50420555 61419260.913525
2774	15636691 1617 571600 696968 11.378 13.275 77 0 0 0 0
2775	15638308 2618 571600 696968 11.378 13.275 77 0.008012410525 0.008098427373 0.617127644121 0.0049460732334163
2776	15640926 3221 571658 697023 11.3780003588 13.2750003588 77 4528.0364189964 5848.4988257551 402520.67096796 2115833565.0779
2777	15644147 9553 695666 695666 13.2550003588 13.2550003588 233 0.008012769325 0.054012769325 2.208975372725 0.025236381056948
2781	15653700 4344 571724 801645 11.38 14.835613147105 116 228.47100175747 485.31866722374 43001.72314894 16528034.429023
2782	15658044 2900 571727 801646 11.38 14.835613147105 116 48 48 5568 267264
2783	15660944 2900 571730 801649 11.38 14.835613147105 116 68 68 7888 536384
2784	15663844 2900 571730 801649 11.38 14.835613147105 116 69 69 8004 552276
2785	15666744 2900 571731 801650 11.38 14.835613147105 116 69 69 8004 552276
2786	15669644 5392 571733 801919 11.38 14.84 232 71 71 16472 1169512
2787	15675036 4844 571735 801947 11.38 14.84 232 1 73 8584 618280
2788	15679880 20148 571044 802093 11.368 14.842 580 21.338374202474 40.536799193955 19039.936985809 638646.28137841
2789	15700028 20088 571044 802093 11.368 14.842 580 40.020704560203 57.960824193953 29177.858764367 1481459.8473048
2790	15720116 7308 571112 801896 11.369 14.839 348 1 1 348 348
2791	15727424 2376 571997 801915 11.384 14.84 116 1 1 116 116
2792	15729800 4833 571003 802191 11.368 14.844 233 0 0 0 0
2793	15734633 2492 571999 801917 11.384 14.84 116 71 71 8236 584756
2794	15737125 2492 572031 801948 11.384 14.84 116 12 14 1591 21847
2795	15739617 4082 570849 802035 11.365 14.841 117 20.514204164524 43.915193228916 3797.6504138931 125629.69461828
2796	15743699 2925 571000 802188 11.368 14.844 117 0.004 0.004 0.468 0.001872
2797	15746624 2457 571003 802191 11.368 14.844 117 0 0 0 0
2798	15749081 2925 571003 802191 11.368 14.844 117 0.004 0.004 0.468 0.001872
2799	15752006 2457 571003 802191 11.368 14.844 117 0 0 0 0
2800	15754463 2436 571112 801005 11.369 14.825 116 0 0 0 0
2801	15756899 2436 571112 801005 11.369 14.825 116 0 0 0 0
2802	15759335 2436 571112 801005 11.369 14.825 116 1 1 116 116
2803	15761771 4066 571003 802191 11.368 14.844 117 109.25404644616 622.87793047696 45719.455420535 20334082.152592
2804	15765837 2457 571003 802191 11.368 14.844 117 0 0 0 0
2805	15768294 3357 571003 802191 11.368 14.844 117 0.008 0.008386852895 0.95456893896 0.0077922864711537
2806	15771651 4902 571062 802255 11.3680003588 14.8440003588 117 1801.5481486281 3880.3556054789 345601.06402688 1059737579.2646
2852	15776553 17060 570850 802094 11.365 14.842 813 1 73 9237 624189
2853	15793613 7329 571000 802188 11.368 14.844 349 1 1 349 349
2854	15800942 2574 571000 802188 11.368 14.844 117 71 71 8307 589797
2855	15803516 2574 571003 802191 11.368 14.844 117 71 71 8307 589797
2856	15806090 2574 571003 802191 11.368 14.844 117 69 69 8073 557037
2857	15808664 2574 571004 802192 11.368 14.844 117 69 69 8073 557037
2858	15811238 2574 571004 802192 11.368 14.844 117 68 68 7956 541008
2859	15813812 2574 571008 802196 11.368 14.844 117 84 84 9828 825552
2860	15816386 2691 571010 802198 11.368 14.844 117 104 104 12168 1265472
2861	15819077 2691 571010 802198 11.368 14.844 117 104 104 12168 1265472
2862	15821768 4914 571010 802198 11.368 14.844 234 0 1 117 117
2863	15826682 2691 571010 802198 11.368 14.844 117 104 104 12168 1265472
2864	15829373 2457 571010 802198 11.368 14.844 117 0 0 0 0
2865	15831830 2691 571010 802198 11.368 14.844 117 111 111 12987 1441557
2866	15834521 3510 571049 802242 11.3680001388 14.8440001388 117 111 111 12987 1441557
2867	15838031 3510 571049 802242 11.3680001388 14.8440001388 117 104 104 12168 1265472
2868	15841541 19 616242 616242 12.1 12.1 1 0 0 0 0
2869	15841560 42 616242 682090 12.1 13.05001 2 1 2 3 5
2870	15841602 4630 616250 801899 12.1 14.84 138 3.3057851239669 371.96765498652 27609.636091213 7101224.6511417
2871	15846232 2866 616252 801902 12.1 14.84 138 48 48 6624 317952
2872	15849098 2872 616258 801905 12.1 14.84 138 68 68 9384 638112
2873	15851970 2872 616258 801905 12.1 14.84 138 69 69 9522 657018
2874	15854842 2872 616260 801906 12.1 14.84 138 69 69 9522 657018
2875	15857714 6853 616263 802173 12.1 14.844 321 36 139 19686 1291402
2876	15864567 6715 616321 802213 12.101 14.844 321 1 141 10430 637686
2877	15871282 15889 616436 802236 12.102 14.844 458 5.9423670346549 39.638528736646 11563.889762446 358478.6368744
2878	15887171 15881 616436 802236 12.102 14.844 458 23.613941561031 56.823213685029 18664.778826249 825958.34455983
2879	15903052 10582 616510 802162 12.103 14.843 504 1 1 504 504
2880	15913634 3797 616596 802169 12.105 14.844 183 1 1 183 183
2881	15917431 7616 616598 802171 12.105 14.844 365 0 1 45 45
2882	15925047 3981 616598 802171 12.105 14.844 183 36 139 9888 595744
2883	15929028 3909 616631 802214 12.105 14.844 184 4 14 1741 20185
2884	15932937 6395 616714 801006 12.106 14.825 183 2.9153243981467 39.638346134151 3657.0118958562 103096.134414
2885	15939332 4547 616866 801166 12.109 14.828 182 0.004 0.01 0.734 0.002996
2886	15943879 3820 616870 801169 12.109 14.828 182 0 0 0 0
2887	15947699 4547 616870 801169 12.109 14.828 182 0.004 0.01 0.734 0.002996
2888	15952246 3820 616870 801169 12.109 14.828 182 0 0 0 0
2889	15956066 3821 616980 801285 12.11 14.829 182 0 1 1 1
2890	15959887 3842 616980 801285 12.11 14.829 183 0 1 1 1
2891	15963729 3821 616980 801285 12.11 14.829 182 1 2 183 185
2892	15967550 4758 617262 801169 12.115 14.828 137 5.2816901408451 423.4556244942 26187.799406109 6865437.5554893
2893	15972308 3819 617262 801169 12.115 14.828 182 0 1 45 45
2894	15976127 3419 617262 801169 12.115 14.828 137 0.008 0.044 1.439 0.017817
2895	15979546 5736 617319 801231 12.1150003588 14.8280003588 137 26.413536155413 2956.5685823566 217757.27039888 445085115.00814
2896	15985282 21 624361 624361 12.221 12.221 1 0 0 0 0
2897	15985303 5148 737332 737332 13.9040003588 13.9040003588 132 0.0080003588 0.0440003588 1.3990474816 0.017498006339494
2898	15990451 19 750824 750824 14.1 14.1 1 0 0 0 0
2899	15990470 19 750824 750824 14.1 14.1 1 1 1 1 1
2900	15990489 638 750832 792309 14.1 14.694503914549 15 2.8368794326241 40.83159278388 332.40500072905 9440.4838639503
2901	15991127 444 750834 792310 14.1 14.694503914549 15 48 48 720 34560
2902	15991571 444 750840 792313 14.1 14.694503914549 15 68 68 1020 69360
2903	15992015 444 750840 792313 14.1 14.694503914549 15 69 69 1035 71415
2904	15992459 444 750842 792314 14.1 14.694503914549 15 69 69 1035 71415
2905	15992903 1088 750845 793013 14.1 14.705 45 9 71 2160 138270
2906	15993991 973 750913 793056 14.101 14.705 45 1 66 1170 67170
2907	15994964 4310 751035 801970 14.102 14.84 124 12.557920378161 17.608783908278 1700.4310131295 23351.632153458
2908	15999274 4263 751035 801970 14.102 14.84 124 31.557183652113 34.485914680943 3923.9951504785 124194.62369704
2909	16003537 1570 751119 793442 14.103 14.71 75 1 1 75 75
2910	16005107 629 751219 793009 14.105 14.705 30 1 1 30 30
2911	16005736 944 751221 793326 14.105 14.709 45 0 0 0 0
2912	16006680 644 751221 793011 14.105 14.705 30 9 64 1095 62655
2913	16007324 629 751259 793057 14.105 14.705 30 7 8 239 1905
2914	16007953 1046 751348 793159 14.106 14.706 30 7.7744251121282 20.231028397404 582.47797996675 11509.447417487
2915	16008999 750 751543 793323 14.109 14.709 30 0.004 0.004 0.12 0.00048
2916	16009749 630 751547 793326 14.109 14.709 30 0 0 0 0
2917	16010379 750 751547 793326 14.109 14.709 30 0.004 0.004 0.12 0.00048
2918	16011129 630 751547 793326 14.109 14.709 30 0 0 0 0
2919	16011759 626 751641 793442 14.11 14.71 30 0 0 0 0
2920	16012385 626 751641 793442 14.11 14.71 30 0 0 0 0
2921	16013011 626 751641 793442 14.11 14.71 30 1 1 30 30
2922	16013637 524 751962 793326 14.115 14.709 15 4.8884165781084 70.365082602488 572.81366008955 28034.411983906
2923	16014161 315 751962 793326 14.115 14.709 15 0 0 0 0
2924	16014476 492 751962 793326 14.115 14.709 15 0.014 0.015 0.221425120793 0.00326962843913
2925	16014968 629 752020 793383 14.1150003588 14.7090003588 15 22.670916887402 326.33080990635 2656.5270533057 602966.52912499
2926	16015597 488 760022 790616 14.2280003588 14.6690003588 12 0.0140003588 0.0150003588 0.17794117004 0.0026393466479607
1	16016085 50 802335 802336 14.8450002488 14.8450003088 2 0 1 1 1
20	16016135 52 802331 802332 14.8450001388 14.8450001988 2 0 1 1 1
25	16016187 71 802326 802530 14.8450000888 14.8480000888 3 0 1 1 1
2231	16016258 63 802359 802480 14.846 14.848 3 0 0 0 0
2232	16016321 63 802359 802480 14.846 14.848 3 0 0 0 0
2233	16016384 63 802360 802481 14.846 14.848 3 0 0 0 0
2234	16016447 63 802360 802481 14.846 14.848 3 0 0 0 0
2235	16016510 63 802361 802492 14.846 14.848 3 0 0 0 0
2236	16016573 63 802361 802492 14.846 14.848 3 0 0 0 0
2237	16016636 63 802362 802493 14.846 14.848 3 0 0 0 0
2238	16016699 63 802362 802493 14.846 14.848 3 0 0 0 0
2239	16016762 63 802363 802494 14.846 14.848 3 0 0 0 0
2240	16016825 63 802363 802494 14.846 14.848 3 0 0 0 0
2241	16016888 63 802364 802495 14.846 14.848 3 0 0 0 0
2242	16016951 63 802364 802495 14.846 14.848 3 0 0 0 0
2243	16017014 63 802365 802496 14.846 14.848 3 0 0 0 0
2244	16017077 63 802365 802496 14.846 14.848 3 0 0 0 0
2245	16017140 63 802366 802497 14.846 14.848 3 0 0 0 0
2246	16017203 63 802366 802497 14.846 14.848 3 0 0 0 0
2247	16017266 63 802367 802498 14.846 14.848 3 0 0 0 0
2248	16017329 63 802367 802498 14.846 14.848 3 0 0 0 0
2249	16017392 63 802368 802499 14.846 14.848 3 0 0 0 0
2250	16017455 63 802368 802499 14.846 14.848 3 0 0 0 0
2251	16017518 63 802369 802500 14.846 14.848 3 0 0 0 0
2252	16017581 63 802369 802500 14.846 14.848 3 0 0 0 0
2253	16017644 63 802370 802501 14.846 14.848 3 0 0 0 0
2254	16017707 63 802370 802501 14.846 14.848 3 0 0 0 0
2255	16017770 63 802371 802502 14.846 14.848 3 0 0 0 0
2256	16017833 63 802371 802502 14.846 14.848 3 0 0 0 0
2257	16017896 63 802372 802503 14.846 14.848 3 0 0 0 0
2258	16017959 63 802372 802503 14.846 14.848 3 0 0 0 0
2259	16018022 63 802373 802504 14.846 14.848 3 0 0 0 0
2260	16018085 63 802373 802504 14.846 14.848 3 0 0 0 0
2261	16018148 63 802374 802505 14.846 14.848 3 0 0 0 0
2262	16018211 63 802374 802505 14.846 14.848 3 0 0 0 0
2263	16018274 63 802375 802506 14.846 14.848 3 0 0 0 0
2264	16018337 63 802375 802506 14.846 14.848 3 0 0 0 0
2276	16018400 21 802398 802398 14.846 14.846 1 1 1 1 1
2308	16018421 29 802329 802329 14.8450001388 14.8450001388 1 84 84 84 7056
2309	16018450 31 802329 802329 14.8450001388 14.8450001388 1 2240 2240 2240 5017600
2310	16018481 29 802331 802331 14.8450001388 14.8450001388 1 68 68 68 4624
2311	16018510 29 802331 802331 14.8450001388 14.8450001388 1 68 68 68 4624
2312	16018539 56 802331 802331 14.8450001388 14.8450001388 2 0 1 1 1
2313	16018595 29 802331 802331 14.8450001388 14.8450001388 1 68 68 68 4624
2314	16018624 28 802331 802331 14.8450001388 14.8450001388 1 0 0 0 0
2315	16018652 29 802331 802331 14.8450001388 14.8450001388 1 75 75 75 5625
2316	16018681 29 802333 802333 14.8450002488 14.8450002488 1 75 75 75 5625
2317	16018710 29 802333 802333 14.8450002488 14.8450002488 1 68 68 68 4624
2318	16018739 29 802335 802335 14.8450002488 14.8450002488 1 68 68 68 4624
2319	16018768 29 802335 802335 14.8450002488 14.8450002488 1 68 68 68 4624
2320	16018797 56 802335 802335 14.8450002488 14.8450002488 2 0 1 1 1
2321	16018853 29 802335 802335 14.8450002488 14.8450002488 1 68 68 68 4624
2322	16018882 28 802335 802335 14.8450002488 14.8450002488 1 0 0 0 0
2323	16018910 29 802335 802335 14.8450002488 14.8450002488 1 75 75 75 5625
2324	16018939 29 802337 802337 14.8450003588 14.8450003588 1 75 75 75 5625
2325	16018968 29 802337 802337 14.8450003588 14.8450003588 1 68 68 68 4624
2326	16018997 29 802339 802339 14.8450003588 14.8450003588 1 48 48 48 2304
2327	16019026 31 802339 802339 14.8450003588 14.8450003588 1 2240 2240 2240 5017600
2443	16019057 35 802393 802393 14.846 14.846 1 17.862568475767 17.862568475767 17.862568475767 319.07135255145
2444	16019092 35 802393 802393 14.846 14.846 1 35.676856044836 35.676856044836 35.676856044836 1272.8380572439
2551	16019127 21 802394 802394 14.846 14.846 1 1 1 1 1
2574	16019148 22 802420 802420 14.847 14.847 1 71 71 71 5041
2575	16019170 22 802442 802442 14.847 14.847 1 73 73 73 5329
2576	16019192 35 802524 802524 14.848 14.848 1 26.242223463902 26.242223463902 26.242223463902 688.65429232939
2577	16019227 35 802524 802524 14.848 14.848 1 39.552203343334 39.552203343334 39.552203343334 1564.3767893124
2578	16019262 42 802325 802402 14.845 14.846 2 1 1 2 2
2579	16019304 21 802416 802416 14.847 14.847 1 1 1 1 1
2580	16019325 21 802418 802418 14.847 14.847 1 0 0 0 0
2581	16019346 22 802418 802418 14.847 14.847 1 71 71 71 5041
2582	16019368 22 802443 802443 14.847 14.847 1 13 13 13 169
2583	16019390 35 802528 802528 14.848 14.848 1 27.833802279087 27.833802279087 27.833802279087 774.7205493113
2643	16019425 64 802396 802529 14.846 14.848 3 1 73 75 5331
2670	16019489 21 802400 802400 14.846 14.846 1 1 1 1 1
2683	16019510 42 802340 802340 14.8450003588 14.8450003588 1 4914.7860044847 4914.7860044847 4914.7860044847 24155121.469878
2684	16019552 21 802400 802400 14.846 14.846 1 0 0 0 0
2685	16019573 21 802400 802400 14.846 14.846 1 0 0 0 0
2686	16019594 21 802400 802400 14.846 14.846 1 1 1 1 1
2731	16019615 22 802323 802323 14.845 14.845 1 73 73 73 5329
2732	16019637 21 802481 802481 14.848 14.848 1 1 1 1 1
2733	16019658 22 802481 802481 14.848 14.848 1 71 71 71 5041
2734	16019680 22 802484 802484 14.848 14.848 1 71 71 71 5041
2735	16019702 22 802484 802484 14.848 14.848 1 69 69 69 4761
2736	16019724 22 802485 802485 14.848 14.848 1 69 69 69 4761
2737	16019746 22 802485 802485 14.848 14.848 1 68 68 68 4624
2738	16019768 22 802489 802489 14.848 14.848 1 84 84 84 7056
2739	16019790 23 802491 802491 14.848 14.848 1 104 104 104 10816
2740	16019813 23 802491 802491 14.848 14.848 1 104 104 104 10816
2741	16019836 42 802491 802491 14.848 14.848 2 0 1 1 1
2742	16019878 23 802491 802491 14.848 14.848 1 104 104 104 10816
2743	16019901 21 802491 802491 14.848 14.848 1 0 0 0 0
2744	16019922 23 802491 802491 14.848 14.848 1 111 111 111 12321
2745	16019945 30 802327 802327 14.8450001388 14.8450001388 1 111 111 111 12321
2746	16019975 30 802327 802327 14.8450001388 14.8450001388 1 104 104 104 10816
2758	16020005 35 802395 802395 14.846 14.846 1 14.179882058811 14.179882058811 14.179882058811 201.06905520178
2759	16020040 35 802395 802395 14.846 14.846 1 31.177266921527 31.177266921527 31.177266921527 972.02197269616
2788	16020075 35 802526 802526 14.848 14.848 1 40.446494032819 40.446494032819 40.446494032819 1635.9188795469
2789	16020110 35 802526 802526 14.848 14.848 1 57.870519032817 57.870519032817 57.870519032817 3348.9969731276
2790	16020145 21 802321 802321 14.845 14.845 1 1 1 1 1
2800	16020166 21 802321 802321 14.845 14.845 1 0 0 0 0
2801	16020187 21 802321 802321 14.845 14.845 1 0 0 0 0
2802	16020208 21 802321 802321 14.845 14.845 1 1 1 1 1
2852	16020229 21 802527 802527 14.848 14.848 1 1 1 1 1
2881	16020250 21 802484 802484 14.848 14.848 1 0 0 0 0
2884	16020271 35 802322 802322 14.845 14.845 1 38.187121846436 38.187121846436 38.187121846436 1458.2562749145
2885	16020306 25 802481 802481 14.848 14.848 1 0.004 0.004 0.004 1.6e-05
2886	16020331 21 802484 802484 14.848 14.848 1 0 0 0 0
2887	16020352 25 802484 802484 14.848 14.848 1 0.004 0.004 0.004 1.6e-05
2888	16020377 21 802484 802484 14.848 14.848 1 0 0 0 0
2892	16020398 35 802484 802484 14.848 14.848 1 427.53232758621 427.53232758621 427.53232758621 182783.89113128
2893	16020433 21 802484 802484 14.848 14.848 1 0 0 0 0
2894	16020454 25 802484 802484 14.848 14.848 1 0.008 0.008 0.008 6.4e-05
2907	16020479 35 802397 802397 14.846 14.846 1 13.595662034249 13.595662034249 13.595662034249 184.84202614952
2908	16020514 35 802397 802397 14.846 14.846 1 31.557183652113 31.557183652113 31.557183652113 995.85584005319
vector 2927 Crocetta.server.app[6] voIPFrameDelay:vector ETV
attr source voIPFrameDelay
attr title "VoIP Frame Delay, vector"
attr unit s
2595	16020687 20496 802530 802530 14.848000127301 14.848000127301 488 0.00800364123 0.02000364123 4.10977794024 0.035821945623344
2596	16041183 1720 802530 802530 14.848000127301 14.848000127301 40 0.008609524238 0.014609524238 0.35038108952 0.0031042726613374
2597	16042903 4644 802530 802530 14.848000127301 14.848000127301 108 0.008582869578 0.014582869578 1.118949914424 0.012403712138791
2747	16047547 5289 802530 802530 14.848000127301 14.848000127301 123 0.008140357859 0.014140357859 1.019264016657 0.0085517002898517
2777	16052836 86 802530 802530 14.848000127301 14.848000127301 2 0.008098786173 0.008098786173 0.016197572346 0.00013118067495195
2897	16052922 2064 802530 802530 14.848000127301 14.848000127301 48 0.008387211695 0.008387211695 0.40258616136 0.0033765753608037
2926	16054986 129 802530 802530 14.848000127301 14.848000127301 3 0.014496444251 0.014496444251 0.043489332753 0.00063044068776705
2927	16055115 5617 802530 802530 14.848000127301 14.848000127301 137 0.0080003588 0.0440003588 1.4390498756 0.017818044644604

