file 81613618 1643965859                                        
version 3
run General-0-20220204-10:09:08-8110
attr configname General
attr datetime 20220204-10:09:08
attr datetimef 20220204-100908
attr experiment General
attr inifile omnetpp.ini
attr iterationvars ""
attr iterationvarsd ""
attr iterationvarsf ""
attr measurement ""
attr network mapcrocetta.utils.Crocetta
attr processid 8110
attr repetition 0
attr replication #0
attr resultdir results
attr runnumber 0
attr seedset 0
config image-path ../../../inet/images:../../../simu5g/images:../../../veins/subprojects/veins_inet/images:../../../veins/images
config cmdenv-express-mode true
config cmdenv-autoflush true
config cmdenv-status-frequency 1s
config **.cmdenv-log-level info
config image-path ../../images
config network mapcrocetta.utils.Crocetta
config debug-on-errors false
config print-undisposed false
config sim-time-limit 3600s
config **.sctp.**.scalar-recording true
config **.sctp.**.vector-recording true
config **.routingRecorder.enabled false
config *.playgroundSizeX 5000m
config *.playgroundSizeY 5000m
config *.playgroundSizeZ 50m
config *.veinsManager.host "\"localhost\""
config *.veinsManager.moduleType "\"simu5g.nodes.cars.NRCar\""
config *.veinsManager.moduleName "\"car\""
config *.veinsManager.launchConfig "xmldoc(\"map.launchd.xml\")"
config *.veinsManager.updateInterval 0.1s
config *.car[*].mobilityType "\"VeinsInetMobility\""
config **.numBands 25
config **.ueTxPower 26
config **.eNodeBTxPower 46
config *.car[*].cellularNic.nrPhy.dynamicCellAssociation true
config *.car[*].masterId 0
config *.car[*].macCellId 0
config *.car[*].nrMasterId 1
config *.car[*].nrMacCellId 1
config **.gNodeB1.macCellId 1
config **.gNodeB1.macNodeId 1
config **.gNodeB2.macCellId 2
config **.gNodeB2.macNodeId 2
config **.gNodeB3.macCellId 3
config **.gNodeB3.macNodeId 3
config **.gNodeB4.macCellId 4
config **.gNodeB4.macNodeId 4
config **.gNodeB5.macCellId 5
config **.gNodeB5.macNodeId 5
config **.gNodeB6.macCellId 6
config **.gNodeB6.macNodeId 6
config **.gNodeB7.macCellId 7
config **.gNodeB7.macNodeId 7
config **.gNodeB8.macCellId 8
config **.gNodeB8.macNodeId 8
config **.gNodeB9.macCellId 9
config **.gNodeB9.macNodeId 9
config **.gNodeB10.macCellId 10
config **.gNodeB10.macNodeId 10
config **.gNodeB11.macCellId 11
config **.gNodeB11.macNodeId 11
config **.gNodeB12.macCellId 12
config **.gNodeB12.macNodeId 12
config **.gNodeB13.macCellId 13
config **.gNodeB13.macNodeId 13
config **.gNodeB14.macCellId 14
config **.gNodeB14.macNodeId 14
config **.gNodeB15.macCellId 15
config **.gNodeB15.macNodeId 15
config **.gNodeB16.macCellId 16
config **.gNodeB16.macNodeId 16
config **.gNodeB17.macCellId 16
config **.gNodeB17.macNodeId 16
config *.car[*].cellularNic.nrPhy.enableHandover true
config *.gNodeB*.cellularNic.phy.enableHandover true
config *.gNodeB*.cellularNic.phy.handoverLatency 10ms
config *.gNodeB*.cellInfo.broadcastMessageInterval 1s
config *.gNodeB1.numX2Apps 2
config *.gNodeB2.numX2Apps 2
config *.gNodeB3.numX2Apps 2
config *.gNodeB4.numX2Apps 2
config *.gNodeB5.numX2Apps 2
config *.gNodeB6.numX2Apps 2
config *.gNodeB7.numX2Apps 2
config *.gNodeB8.numX2Apps 2
config *.gNodeB9.numX2Apps 2
config *.gNodeB10.numX2Apps 2
config *.gNodeB11.numX2Apps 2
config *.gNodeB12.numX2Apps 2
config *.gNodeB13.numX2Apps 2
config *.gNodeB14.numX2Apps 2
config *.gNodeB15.numX2Apps 2
config *.gNodeB16.numX2Apps 2
config *.gNodeB17.numX2Apps 2
config *.gNodeB*.x2App[*].server.localPort "5000 + ancestorIndex(1)"
config *.gNodeB1.x2App[0].client.connectAddress "\"gNodeB2%x2ppp0\""
config *.gNodeB1.x2App[1].client.connectAddress "\"gNodeB17%x2ppp0\""
config *.gNodeB2.x2App[0].client.connectAddress "\"gNodeB1%x2ppp0\""
config *.gNodeB2.x2App[1].client.connectAddress "\"gNodeB3%x2ppp0\""
config *.gNodeB3.x2App[0].client.connectAddress "\"gNodeB2%x2ppp0\""
config *.gNodeB3.x2App[1].client.connectAddress "\"gNodeB4%x2ppp0\""
config *.gNodeB4.x2App[0].client.connectAddress "\"gNodeB3%x2ppp0\""
config *.gNodeB4.x2App[1].client.connectAddress "\"gNodeB5%x2ppp0\""
config *.gNodeB5.x2App[0].client.connectAddress "\"gNodeB4%x2ppp0\""
config *.gNodeB5.x2App[1].client.connectAddress "\"gNodeB6%x2ppp0\""
config *.gNodeB6.x2App[0].client.connectAddress "\"gNodeB5%x2ppp0\""
config *.gNodeB6.x2App[1].client.connectAddress "\"gNodeB7%x2ppp0\""
config *.gNodeB7.x2App[0].client.connectAddress "\"gNodeB6%x2ppp0\""
config *.gNodeB7.x2App[1].client.connectAddress "\"gNodeB8%x2ppp0\""
config *.gNodeB8.x2App[0].client.connectAddress "\"gNodeB7%x2ppp0\""
config *.gNodeB8.x2App[1].client.connectAddress "\"gNodeB9%x2ppp0\""
config *.gNodeB9.x2App[0].client.connectAddress "\"gNodeB8%x2ppp0\""
config *.gNodeB9.x2App[1].client.connectAddress "\"gNodeB10%x2ppp0\""
config *.gNodeB10.x2App[0].client.connectAddress "\"gNodeB9%x2ppp0\""
config *.gNodeB10.x2App[1].client.connectAddress "\"gNodeB11%x2ppp0\""
config *.gNodeB11.x2App[0].client.connectAddress "\"gNodeB10%x2ppp0\""
config *.gNodeB11.x2App[1].client.connectAddress "\"gNodeB12%x2ppp0\""
config *.gNodeB12.x2App[0].client.connectAddress "\"gNodeB11%x2ppp0\""
config *.gNodeB12.x2App[1].client.connectAddress "\"gNodeB13%x2ppp0\""
config *.gNodeB13.x2App[0].client.connectAddress "\"gNodeB12%x2ppp0\""
config *.gNodeB13.x2App[1].client.connectAddress "\"gNodeB14%x2ppp0\""
config *.gNodeB14.x2App[0].client.connectAddress "\"gNodeB13%x2ppp0\""
config *.gNodeB14.x2App[1].client.connectAddress "\"gNodeB15%x2ppp0\""
config *.gNodeB15.x2App[0].client.connectAddress "\"gNodeB14%x2ppp0\""
config *.gNodeB15.x2App[1].client.connectAddress "\"gNodeB16%x2ppp0\""
config *.gNodeB16.x2App[0].client.connectAddress "\"gNodeB15%x2ppp0\""
config *.gNodeB16.x2App[1].client.connectAddress "\"gNodeB17%x2ppp0\""
config *.gNodeB17.x2App[0].client.connectAddress "\"gNodeB16%x2ppp0\""
config *.gNodeB17.x2App[1].client.connectAddress "\"gNodeB1%x2ppp0\""
config **.sctp.nagleEnabled false
config **.sctp.enableHeartbeats false
config *.server.numApps 100
config *.server.app[*].typename VoIPReceiver
config *.server.app[*].localPort "3000 + ancestorIndex(0)"
config *.car[*].numApps 1
config *.car[*].app[0].typename VoIPSender
config *.car[*].app[0].destAddress "\"server\""
config *.car[*].app[0].destPort "3000 + ancestorIndex(1)"

vector 0 Crocetta.server.ppp[0].ppp transmissionState:vector ETV
attr interpolationmode sample-hold
attr source transmissionStateChanged
attr title "tx state, vector"
vector 1 Crocetta.router.ppp[0].ppp transmissionState:vector ETV
attr interpolationmode sample-hold
attr source transmissionStateChanged
attr title "tx state, vector"
vector 2 Crocetta.router.ppp[1].ppp transmissionState:vector ETV
attr interpolationmode sample-hold
attr source transmissionStateChanged
attr title "tx state, vector"
vector 3 Crocetta.upf.ppp[0].ppp transmissionState:vector ETV
attr interpolationmode sample-hold
attr source transmissionStateChanged
attr title "tx state, vector"
vector 4 Crocetta.upf.ppp[1].ppp transmissionState:vector ETV
attr interpolationmode sample-hold
attr source transmissionStateChanged
attr title "tx state, vector"
vector 5 Crocetta.upf.ppp[2].ppp transmissionState:vector ETV
attr interpolationmode sample-hold
attr source transmissionStateChanged
attr title "tx state, vector"
vector 6 Crocetta.upf.ppp[3].ppp transmissionState:vector ETV
attr interpolationmode sample-hold
attr source transmissionStateChanged
attr title "tx state, vector"
vector 7 Crocetta.upf.ppp[4].ppp transmissionState:vector ETV
attr interpolationmode sample-hold
attr source transmissionStateChanged
attr title "tx state, vector"
vector 8 Crocetta.upf.ppp[5].ppp transmissionState:vector ETV
attr interpolationmode sample-hold
attr source transmissionStateChanged
attr title "tx state, vector"
vector 9 Crocetta.upf.ppp[6].ppp transmissionState:vector ETV
attr interpolationmode sample-hold
attr source transmissionStateChanged
attr title "tx state, vector"
vector 10 Crocetta.upf.ppp[7].ppp transmissionState:vector ETV
attr interpolationmode sample-hold
attr source transmissionStateChanged
attr title "tx state, vector"
vector 11 Crocetta.upf.ppp[8].ppp transmissionState:vector ETV
attr interpolationmode sample-hold
attr source transmissionStateChanged
attr title "tx state, vector"
vector 12 Crocetta.upf.ppp[9].ppp transmissionState:vector ETV
attr interpolationmode sample-hold
attr source transmissionStateChanged
attr title "tx state, vector"
vector 13 Crocetta.upf.ppp[10].ppp transmissionState:vector ETV
attr interpolationmode sample-hold
attr source transmissionStateChanged
attr title "tx state, vector"
vector 14 Crocetta.upf.ppp[11].ppp transmissionState:vector ETV
attr interpolationmode sample-hold
attr source transmissionStateChanged
attr title "tx state, vector"
vector 15 Crocetta.upf.ppp[12].ppp transmissionState:vector ETV
attr interpolationmode sample-hold
attr source transmissionStateChanged
attr title "tx state, vector"
vector 16 Crocetta.upf.ppp[13].ppp transmissionState:vector ETV
attr interpolationmode sample-hold
attr source transmissionStateChanged
attr title "tx state, vector"
vector 17 Crocetta.upf.ppp[14].ppp transmissionState:vector ETV
attr interpolationmode sample-hold
attr source transmissionStateChanged
attr title "tx state, vector"
vector 18 Crocetta.upf.ppp[15].ppp transmissionState:vector ETV
attr interpolationmode sample-hold
attr source transmissionStateChanged
attr title "tx state, vector"
vector 19 Crocetta.upf.ppp[16].ppp transmissionState:vector ETV
attr interpolationmode sample-hold
attr source transmissionStateChanged
attr title "tx state, vector"
vector 20 Crocetta.upf.pppIf.ppp transmissionState:vector ETV
attr interpolationmode sample-hold
attr source transmissionStateChanged
attr title "tx state, vector"
vector 21 Crocetta.gNodeB1.pppIf.ppp transmissionState:vector ETV
attr interpolationmode sample-hold
attr source transmissionStateChanged
attr title "tx state, vector"
vector 22 Crocetta.gNodeB1.x2ppp[0].ppp transmissionState:vector ETV
attr interpolationmode sample-hold
attr source transmissionStateChanged
attr title "tx state, vector"
vector 23 Crocetta.gNodeB1.x2ppp[1].ppp transmissionState:vector ETV
attr interpolationmode sample-hold
attr source transmissionStateChanged
attr title "tx state, vector"
vector 24 Crocetta.gNodeB1.pppMEHostIf.ppp transmissionState:vector ETV
attr interpolationmode sample-hold
attr source transmissionStateChanged
attr title "tx state, vector"
vector 25 Crocetta.gNodeB2.pppIf.ppp transmissionState:vector ETV
attr interpolationmode sample-hold
attr source transmissionStateChanged
attr title "tx state, vector"
vector 26 Crocetta.gNodeB2.x2ppp[0].ppp transmissionState:vector ETV
attr interpolationmode sample-hold
attr source transmissionStateChanged
attr title "tx state, vector"
vector 27 Crocetta.gNodeB2.x2ppp[1].ppp transmissionState:vector ETV
attr interpolationmode sample-hold
attr source transmissionStateChanged
attr title "tx state, vector"
vector 28 Crocetta.gNodeB2.pppMEHostIf.ppp transmissionState:vector ETV
attr interpolationmode sample-hold
attr source transmissionStateChanged
attr title "tx state, vector"
vector 29 Crocetta.gNodeB3.pppIf.ppp transmissionState:vector ETV
attr interpolationmode sample-hold
attr source transmissionStateChanged
attr title "tx state, vector"
vector 30 Crocetta.gNodeB3.x2ppp[0].ppp transmissionState:vector ETV
attr interpolationmode sample-hold
attr source transmissionStateChanged
attr title "tx state, vector"
vector 31 Crocetta.gNodeB3.x2ppp[1].ppp transmissionState:vector ETV
attr interpolationmode sample-hold
attr source transmissionStateChanged
attr title "tx state, vector"
vector 32 Crocetta.gNodeB3.pppMEHostIf.ppp transmissionState:vector ETV
attr interpolationmode sample-hold
attr source transmissionStateChanged
attr title "tx state, vector"
vector 33 Crocetta.gNodeB4.pppIf.ppp transmissionState:vector ETV
attr interpolationmode sample-hold
attr source transmissionStateChanged
attr title "tx state, vector"
vector 34 Crocetta.gNodeB4.x2ppp[0].ppp transmissionState:vector ETV
attr interpolationmode sample-hold
attr source transmissionStateChanged
attr title "tx state, vector"
vector 35 Crocetta.gNodeB4.x2ppp[1].ppp transmissionState:vector ETV
attr interpolationmode sample-hold
attr source transmissionStateChanged
attr title "tx state, vector"
vector 36 Crocetta.gNodeB4.pppMEHostIf.ppp transmissionState:vector ETV
attr interpolationmode sample-hold
attr source transmissionStateChanged
attr title "tx state, vector"
vector 37 Crocetta.gNodeB5.pppIf.ppp transmissionState:vector ETV
attr interpolationmode sample-hold
attr source transmissionStateChanged
attr title "tx state, vector"
vector 38 Crocetta.gNodeB5.x2ppp[0].ppp transmissionState:vector ETV
attr interpolationmode sample-hold
attr source transmissionStateChanged
attr title "tx state, vector"
vector 39 Crocetta.gNodeB5.x2ppp[1].ppp transmissionState:vector ETV
attr interpolationmode sample-hold
attr source transmissionStateChanged
attr title "tx state, vector"
vector 40 Crocetta.gNodeB5.pppMEHostIf.ppp transmissionState:vector ETV
attr interpolationmode sample-hold
attr source transmissionStateChanged
attr title "tx state, vector"
vector 41 Crocetta.gNodeB6.pppIf.ppp transmissionState:vector ETV
attr interpolationmode sample-hold
attr source transmissionStateChanged
attr title "tx state, vector"
vector 42 Crocetta.gNodeB6.x2ppp[0].ppp transmissionState:vector ETV
attr interpolationmode sample-hold
attr source transmissionStateChanged
attr title "tx state, vector"
vector 43 Crocetta.gNodeB6.x2ppp[1].ppp transmissionState:vector ETV
attr interpolationmode sample-hold
attr source transmissionStateChanged
attr title "tx state, vector"
vector 44 Crocetta.gNodeB6.pppMEHostIf.ppp transmissionState:vector ETV
attr interpolationmode sample-hold
attr source transmissionStateChanged
attr title "tx state, vector"
vector 45 Crocetta.gNodeB7.pppIf.ppp transmissionState:vector ETV
attr interpolationmode sample-hold
attr source transmissionStateChanged
attr title "tx state, vector"
vector 46 Crocetta.gNodeB7.x2ppp[0].ppp transmissionState:vector ETV
attr interpolationmode sample-hold
attr source transmissionStateChanged
attr title "tx state, vector"
vector 47 Crocetta.gNodeB7.x2ppp[1].ppp transmissionState:vector ETV
attr interpolationmode sample-hold
attr source transmissionStateChanged
attr title "tx state, vector"
vector 48 Crocetta.gNodeB7.pppMEHostIf.ppp transmissionState:vector ETV
attr interpolationmode sample-hold
attr source transmissionStateChanged
attr title "tx state, vector"
vector 49 Crocetta.gNodeB8.pppIf.ppp transmissionState:vector ETV
attr interpolationmode sample-hold
attr source transmissionStateChanged
attr title "tx state, vector"
vector 50 Crocetta.gNodeB8.x2ppp[0].ppp transmissionState:vector ETV
attr interpolationmode sample-hold
attr source transmissionStateChanged
attr title "tx state, vector"
vector 51 Crocetta.gNodeB8.x2ppp[1].ppp transmissionState:vector ETV
attr interpolationmode sample-hold
attr source transmissionStateChanged
attr title "tx state, vector"
vector 52 Crocetta.gNodeB8.pppMEHostIf.ppp transmissionState:vector ETV
attr interpolationmode sample-hold
attr source transmissionStateChanged
attr title "tx state, vector"
vector 53 Crocetta.gNodeB9.pppIf.ppp transmissionState:vector ETV
attr interpolationmode sample-hold
attr source transmissionStateChanged
attr title "tx state, vector"
vector 54 Crocetta.gNodeB9.x2ppp[0].ppp transmissionState:vector ETV
attr interpolationmode sample-hold
attr source transmissionStateChanged
attr title "tx state, vector"
vector 55 Crocetta.gNodeB9.x2ppp[1].ppp transmissionState:vector ETV
attr interpolationmode sample-hold
attr source transmissionStateChanged
attr title "tx state, vector"
vector 56 Crocetta.gNodeB9.pppMEHostIf.ppp transmissionState:vector ETV
attr interpolationmode sample-hold
attr source transmissionStateChanged
attr title "tx state, vector"
vector 57 Crocetta.gNodeB10.pppIf.ppp transmissionState:vector ETV
attr interpolationmode sample-hold
attr source transmissionStateChanged
attr title "tx state, vector"
vector 58 Crocetta.gNodeB10.x2ppp[0].ppp transmissionState:vector ETV
attr interpolationmode sample-hold
attr source transmissionStateChanged
attr title "tx state, vector"
vector 59 Crocetta.gNodeB10.x2ppp[1].ppp transmissionState:vector ETV
attr interpolationmode sample-hold
attr source transmissionStateChanged
attr title "tx state, vector"
vector 60 Crocetta.gNodeB10.pppMEHostIf.ppp transmissionState:vector ETV
attr interpolationmode sample-hold
attr source transmissionStateChanged
attr title "tx state, vector"
vector 61 Crocetta.gNodeB11.pppIf.ppp transmissionState:vector ETV
attr interpolationmode sample-hold
attr source transmissionStateChanged
attr title "tx state, vector"
vector 62 Crocetta.gNodeB11.x2ppp[0].ppp transmissionState:vector ETV
attr interpolationmode sample-hold
attr source transmissionStateChanged
attr title "tx state, vector"
vector 63 Crocetta.gNodeB11.x2ppp[1].ppp transmissionState:vector ETV
attr interpolationmode sample-hold
attr source transmissionStateChanged
attr title "tx state, vector"
vector 64 Crocetta.gNodeB11.pppMEHostIf.ppp transmissionState:vector ETV
attr interpolationmode sample-hold
attr source transmissionStateChanged
attr title "tx state, vector"
vector 65 Crocetta.gNodeB12.pppIf.ppp transmissionState:vector ETV
attr interpolationmode sample-hold
attr source transmissionStateChanged
attr title "tx state, vector"
vector 66 Crocetta.gNodeB12.x2ppp[0].ppp transmissionState:vector ETV
attr interpolationmode sample-hold
attr source transmissionStateChanged
attr title "tx state, vector"
vector 67 Crocetta.gNodeB12.x2ppp[1].ppp transmissionState:vector ETV
attr interpolationmode sample-hold
attr source transmissionStateChanged
attr title "tx state, vector"
vector 68 Crocetta.gNodeB12.pppMEHostIf.ppp transmissionState:vector ETV
attr interpolationmode sample-hold
attr source transmissionStateChanged
attr title "tx state, vector"
vector 69 Crocetta.gNodeB13.pppIf.ppp transmissionState:vector ETV
attr interpolationmode sample-hold
attr source transmissionStateChanged
attr title "tx state, vector"
vector 70 Crocetta.gNodeB13.x2ppp[0].ppp transmissionState:vector ETV
attr interpolationmode sample-hold
attr source transmissionStateChanged
attr title "tx state, vector"
vector 71 Crocetta.gNodeB13.x2ppp[1].ppp transmissionState:vector ETV
attr interpolationmode sample-hold
attr source transmissionStateChanged
attr title "tx state, vector"
vector 72 Crocetta.gNodeB13.pppMEHostIf.ppp transmissionState:vector ETV
attr interpolationmode sample-hold
attr source transmissionStateChanged
attr title "tx state, vector"
vector 73 Crocetta.gNodeB14.pppIf.ppp transmissionState:vector ETV
attr interpolationmode sample-hold
attr source transmissionStateChanged
attr title "tx state, vector"
vector 74 Crocetta.gNodeB14.x2ppp[0].ppp transmissionState:vector ETV
attr interpolationmode sample-hold
attr source transmissionStateChanged
attr title "tx state, vector"
vector 75 Crocetta.gNodeB14.x2ppp[1].ppp transmissionState:vector ETV
attr interpolationmode sample-hold
attr source transmissionStateChanged
attr title "tx state, vector"
vector 76 Crocetta.gNodeB14.pppMEHostIf.ppp transmissionState:vector ETV
attr interpolationmode sample-hold
attr source transmissionStateChanged
attr title "tx state, vector"
vector 77 Crocetta.gNodeB15.pppIf.ppp transmissionState:vector ETV
attr interpolationmode sample-hold
attr source transmissionStateChanged
attr title "tx state, vector"
vector 78 Crocetta.gNodeB15.x2ppp[0].ppp transmissionState:vector ETV
attr interpolationmode sample-hold
attr source transmissionStateChanged
attr title "tx state, vector"
vector 79 Crocetta.gNodeB15.x2ppp[1].ppp transmissionState:vector ETV
attr interpolationmode sample-hold
attr source transmissionStateChanged
attr title "tx state, vector"
vector 80 Crocetta.gNodeB15.pppMEHostIf.ppp transmissionState:vector ETV
attr interpolationmode sample-hold
attr source transmissionStateChanged
attr title "tx state, vector"
vector 81 Crocetta.gNodeB16.pppIf.ppp transmissionState:vector ETV
attr interpolationmode sample-hold
attr source transmissionStateChanged
attr title "tx state, vector"
vector 82 Crocetta.gNodeB16.x2ppp[0].ppp transmissionState:vector ETV
attr interpolationmode sample-hold
attr source transmissionStateChanged
attr title "tx state, vector"
vector 83 Crocetta.gNodeB16.x2ppp[1].ppp transmissionState:vector ETV
attr interpolationmode sample-hold
attr source transmissionStateChanged
attr title "tx state, vector"
vector 84 Crocetta.gNodeB16.pppMEHostIf.ppp transmissionState:vector ETV
attr interpolationmode sample-hold
attr source transmissionStateChanged
attr title "tx state, vector"
vector 85 Crocetta.gNodeB17.pppIf.ppp transmissionState:vector ETV
attr interpolationmode sample-hold
attr source transmissionStateChanged
attr title "tx state, vector"
vector 86 Crocetta.gNodeB17.x2ppp[0].ppp transmissionState:vector ETV
attr interpolationmode sample-hold
attr source transmissionStateChanged
attr title "tx state, vector"
vector 87 Crocetta.gNodeB17.x2ppp[1].ppp transmissionState:vector ETV
attr interpolationmode sample-hold
attr source transmissionStateChanged
attr title "tx state, vector"
vector 88 Crocetta.gNodeB17.pppMEHostIf.ppp transmissionState:vector ETV
attr interpolationmode sample-hold
attr source transmissionStateChanged
attr title "tx state, vector"
vector 89 Crocetta.gNodeB1.sctp "Throughput of Association 292" ETV
vector 90 Crocetta.gNodeB1.sctp "Throughput of Association 293" ETV
vector 91 Crocetta.gNodeB2.sctp "Throughput of Association 294" ETV
vector 92 Crocetta.gNodeB2.sctp "Throughput of Association 295" ETV
vector 93 Crocetta.gNodeB3.sctp "Throughput of Association 296" ETV
vector 94 Crocetta.gNodeB3.sctp "Throughput of Association 297" ETV
vector 95 Crocetta.gNodeB4.sctp "Throughput of Association 298" ETV
vector 96 Crocetta.gNodeB4.sctp "Throughput of Association 299" ETV
vector 97 Crocetta.gNodeB5.sctp "Throughput of Association 300" ETV
vector 98 Crocetta.gNodeB5.sctp "Throughput of Association 301" ETV
vector 99 Crocetta.gNodeB6.sctp "Throughput of Association 302" ETV
vector 100 Crocetta.gNodeB6.sctp "Throughput of Association 303" ETV
vector 101 Crocetta.gNodeB7.sctp "Throughput of Association 304" ETV
vector 102 Crocetta.gNodeB7.sctp "Throughput of Association 305" ETV
vector 103 Crocetta.gNodeB8.sctp "Throughput of Association 306" ETV
vector 104 Crocetta.gNodeB8.sctp "Throughput of Association 307" ETV
vector 105 Crocetta.gNodeB9.sctp "Throughput of Association 308" ETV
vector 106 Crocetta.gNodeB9.sctp "Throughput of Association 309" ETV
vector 107 Crocetta.gNodeB10.sctp "Throughput of Association 310" ETV
vector 108 Crocetta.gNodeB10.sctp "Throughput of Association 311" ETV
vector 109 Crocetta.gNodeB11.sctp "Throughput of Association 312" ETV
vector 110 Crocetta.gNodeB11.sctp "Throughput of Association 313" ETV
vector 111 Crocetta.gNodeB12.sctp "Throughput of Association 314" ETV
vector 112 Crocetta.gNodeB12.sctp "Throughput of Association 315" ETV
vector 113 Crocetta.gNodeB13.sctp "Throughput of Association 316" ETV
vector 114 Crocetta.gNodeB13.sctp "Throughput of Association 317" ETV
vector 115 Crocetta.gNodeB14.sctp "Throughput of Association 318" ETV
vector 116 Crocetta.gNodeB14.sctp "Throughput of Association 319" ETV
vector 117 Crocetta.gNodeB15.sctp "Throughput of Association 320" ETV
vector 118 Crocetta.gNodeB15.sctp "Throughput of Association 321" ETV
vector 119 Crocetta.gNodeB16.sctp "Throughput of Association 322" ETV
vector 120 Crocetta.gNodeB16.sctp "Throughput of Association 323" ETV
vector 121 Crocetta.gNodeB17.sctp "Throughput of Association 324" ETV
vector 122 Crocetta.gNodeB17.sctp "Throughput of Association 325" ETV
vector 123 Crocetta.gNodeB1.sctp "Throughput of Association 104" ETV
vector 124 Crocetta.gNodeB1.sctp "Fast Recovery State 104:192.168.19.2" ETV
vector 125 Crocetta.gNodeB1.sctp "Throughput of Association 105" ETV
vector 126 Crocetta.gNodeB1.sctp "Fast Recovery State 105:192.168.50.2" ETV
vector 127 Crocetta.gNodeB2.sctp "Throughput of Association 109" ETV
vector 128 Crocetta.gNodeB2.sctp "Fast Recovery State 109:192.168.19.1" ETV
vector 129 Crocetta.gNodeB2.sctp "Throughput of Association 110" ETV
vector 130 Crocetta.gNodeB2.sctp "Fast Recovery State 110:192.168.22.2" ETV
vector 131 Crocetta.gNodeB3.sctp "Throughput of Association 114" ETV
vector 132 Crocetta.gNodeB3.sctp "Fast Recovery State 114:192.168.19.2" ETV
vector 133 Crocetta.gNodeB3.sctp "Throughput of Association 115" ETV
vector 134 Crocetta.gNodeB3.sctp "Fast Recovery State 115:192.168.24.2" ETV
vector 135 Crocetta.gNodeB4.sctp "Throughput of Association 119" ETV
vector 136 Crocetta.gNodeB4.sctp "Fast Recovery State 119:192.168.22.2" ETV
vector 137 Crocetta.gNodeB4.sctp "Throughput of Association 120" ETV
vector 138 Crocetta.gNodeB4.sctp "Fast Recovery State 120:192.168.26.2" ETV
vector 139 Crocetta.gNodeB5.sctp "Throughput of Association 124" ETV
vector 140 Crocetta.gNodeB5.sctp "Fast Recovery State 124:192.168.24.2" ETV
vector 141 Crocetta.gNodeB5.sctp "Throughput of Association 125" ETV
vector 142 Crocetta.gNodeB5.sctp "Fast Recovery State 125:192.168.28.2" ETV
vector 143 Crocetta.gNodeB6.sctp "Throughput of Association 129" ETV
vector 144 Crocetta.gNodeB6.sctp "Fast Recovery State 129:192.168.26.2" ETV
vector 145 Crocetta.gNodeB6.sctp "Throughput of Association 130" ETV
vector 146 Crocetta.gNodeB6.sctp "Fast Recovery State 130:192.168.30.2" ETV
vector 147 Crocetta.gNodeB7.sctp "Throughput of Association 134" ETV
vector 148 Crocetta.gNodeB7.sctp "Fast Recovery State 134:192.168.28.2" ETV
vector 149 Crocetta.gNodeB7.sctp "Throughput of Association 135" ETV
vector 150 Crocetta.gNodeB7.sctp "Fast Recovery State 135:192.168.32.2" ETV
vector 151 Crocetta.gNodeB8.sctp "Throughput of Association 139" ETV
vector 152 Crocetta.gNodeB8.sctp "Fast Recovery State 139:192.168.30.2" ETV
vector 153 Crocetta.gNodeB8.sctp "Throughput of Association 140" ETV
vector 154 Crocetta.gNodeB8.sctp "Fast Recovery State 140:192.168.34.2" ETV
vector 155 Crocetta.gNodeB9.sctp "Throughput of Association 144" ETV
vector 156 Crocetta.gNodeB9.sctp "Fast Recovery State 144:192.168.32.2" ETV
vector 157 Crocetta.gNodeB9.sctp "Throughput of Association 145" ETV
vector 158 Crocetta.gNodeB9.sctp "Fast Recovery State 145:192.168.36.2" ETV
vector 159 Crocetta.gNodeB10.sctp "Throughput of Association 149" ETV
vector 160 Crocetta.gNodeB10.sctp "Fast Recovery State 149:192.168.34.2" ETV
vector 161 Crocetta.gNodeB10.sctp "Throughput of Association 150" ETV
vector 162 Crocetta.gNodeB10.sctp "Fast Recovery State 150:192.168.38.2" ETV
vector 163 Crocetta.gNodeB11.sctp "Throughput of Association 154" ETV
vector 164 Crocetta.gNodeB11.sctp "Fast Recovery State 154:192.168.36.2" ETV
vector 165 Crocetta.gNodeB11.sctp "Throughput of Association 155" ETV
vector 166 Crocetta.gNodeB11.sctp "Fast Recovery State 155:192.168.40.2" ETV
vector 167 Crocetta.gNodeB12.sctp "Throughput of Association 159" ETV
vector 168 Crocetta.gNodeB12.sctp "Fast Recovery State 159:192.168.38.2" ETV
vector 169 Crocetta.gNodeB12.sctp "Throughput of Association 160" ETV
vector 170 Crocetta.gNodeB12.sctp "Fast Recovery State 160:192.168.42.2" ETV
vector 171 Crocetta.gNodeB13.sctp "Throughput of Association 164" ETV
vector 172 Crocetta.gNodeB13.sctp "Fast Recovery State 164:192.168.40.2" ETV
vector 173 Crocetta.gNodeB13.sctp "Throughput of Association 165" ETV
vector 174 Crocetta.gNodeB13.sctp "Fast Recovery State 165:192.168.44.2" ETV
vector 175 Crocetta.gNodeB14.sctp "Throughput of Association 169" ETV
vector 176 Crocetta.gNodeB14.sctp "Fast Recovery State 169:192.168.42.2" ETV
vector 177 Crocetta.gNodeB14.sctp "Throughput of Association 170" ETV
vector 178 Crocetta.gNodeB14.sctp "Fast Recovery State 170:192.168.46.2" ETV
vector 179 Crocetta.gNodeB15.sctp "Throughput of Association 174" ETV
vector 180 Crocetta.gNodeB15.sctp "Fast Recovery State 174:192.168.44.2" ETV
vector 181 Crocetta.gNodeB15.sctp "Throughput of Association 175" ETV
vector 182 Crocetta.gNodeB15.sctp "Fast Recovery State 175:192.168.48.2" ETV
vector 183 Crocetta.gNodeB16.sctp "Throughput of Association 179" ETV
vector 184 Crocetta.gNodeB16.sctp "Fast Recovery State 179:192.168.46.2" ETV
vector 185 Crocetta.gNodeB16.sctp "Throughput of Association 180" ETV
vector 186 Crocetta.gNodeB16.sctp "Fast Recovery State 180:192.168.50.2" ETV
vector 187 Crocetta.gNodeB17.sctp "Throughput of Association 184" ETV
vector 188 Crocetta.gNodeB17.sctp "Fast Recovery State 184:192.168.48.2" ETV
vector 189 Crocetta.gNodeB17.sctp "Throughput of Association 185" ETV
vector 190 Crocetta.gNodeB17.sctp "Fast Recovery State 185:192.168.19.1" ETV
vector 191 Crocetta.gNodeB1.x2ppp[0].ppp rcvdPkFromHl:vector(packetBytes) ETV
attr interpolationmode none
attr source packetReceivedFromUpper
attr title "packets received from higher layer, vector(packetBytes)"
vector 192 Crocetta.gNodeB1.x2ppp[0].ppp.queue packetPushed:vector(packetBytes) ETV
attr interpolationmode none
attr title "packet pushed, vector(packetBytes)"
vector 193 Crocetta.gNodeB1.x2ppp[0].ppp.queue queueLength:vector ETV
attr autoWarmupFilter false
attr interpolationmode sample-hold
attr source "warmup(count(packetPushed) - count(packetPulled) - count(packetRemoved) - count(packetDropped))"
attr title "queue length, vector"
attr type int
vector 194 Crocetta.gNodeB1.x2ppp[0].ppp.queue packetPulled:vector(packetBytes) ETV
attr interpolationmode none
attr title "packet pulled, vector(packetBytes)"
vector 195 Crocetta.gNodeB1.x2ppp[0].ppp.queue queueingTime:vector ETV
attr interpolationmode none
attr source queueingTime(packetPulled)
attr title "queueing times, vector"
attr unit s
vector 196 Crocetta.gNodeB1.x2ppp[0].ppp txPk:vector(packetBytes) ETV
attr interpolationmode none
attr source packetSentToLower
attr title "packets transmitted, vector(packetBytes)"
vector 197 Crocetta.gNodeB1.x2ppp[1].ppp rcvdPkFromHl:vector(packetBytes) ETV
attr interpolationmode none
attr source packetReceivedFromUpper
attr title "packets received from higher layer, vector(packetBytes)"
vector 198 Crocetta.gNodeB1.x2ppp[1].ppp.queue packetPushed:vector(packetBytes) ETV
attr interpolationmode none
attr title "packet pushed, vector(packetBytes)"
vector 199 Crocetta.gNodeB1.x2ppp[1].ppp.queue queueLength:vector ETV
attr autoWarmupFilter false
attr interpolationmode sample-hold
attr source "warmup(count(packetPushed) - count(packetPulled) - count(packetRemoved) - count(packetDropped))"
attr title "queue length, vector"
attr type int
vector 200 Crocetta.gNodeB1.x2ppp[1].ppp.queue packetPulled:vector(packetBytes) ETV
attr interpolationmode none
attr title "packet pulled, vector(packetBytes)"
vector 201 Crocetta.gNodeB1.x2ppp[1].ppp.queue queueingTime:vector ETV
attr interpolationmode none
attr source queueingTime(packetPulled)
attr title "queueing times, vector"
attr unit s
vector 202 Crocetta.gNodeB1.x2ppp[1].ppp txPk:vector(packetBytes) ETV
attr interpolationmode none
attr source packetSentToLower
attr title "packets transmitted, vector(packetBytes)"
vector 203 Crocetta.gNodeB2.x2ppp[0].ppp rcvdPkFromHl:vector(packetBytes) ETV
attr interpolationmode none
attr source packetReceivedFromUpper
attr title "packets received from higher layer, vector(packetBytes)"
vector 204 Crocetta.gNodeB2.x2ppp[0].ppp.queue packetPushed:vector(packetBytes) ETV
attr interpolationmode none
attr title "packet pushed, vector(packetBytes)"
vector 205 Crocetta.gNodeB2.x2ppp[0].ppp.queue queueLength:vector ETV
attr autoWarmupFilter false
attr interpolationmode sample-hold
attr source "warmup(count(packetPushed) - count(packetPulled) - count(packetRemoved) - count(packetDropped))"
attr title "queue length, vector"
attr type int
vector 206 Crocetta.gNodeB2.x2ppp[0].ppp.queue packetPulled:vector(packetBytes) ETV
attr interpolationmode none
attr title "packet pulled, vector(packetBytes)"
vector 207 Crocetta.gNodeB2.x2ppp[0].ppp.queue queueingTime:vector ETV
attr interpolationmode none
attr source queueingTime(packetPulled)
attr title "queueing times, vector"
attr unit s
vector 208 Crocetta.gNodeB2.x2ppp[0].ppp txPk:vector(packetBytes) ETV
attr interpolationmode none
attr source packetSentToLower
attr title "packets transmitted, vector(packetBytes)"
vector 209 Crocetta.gNodeB2.x2ppp[1].ppp rcvdPkFromHl:vector(packetBytes) ETV
attr interpolationmode none
attr source packetReceivedFromUpper
attr title "packets received from higher layer, vector(packetBytes)"
vector 210 Crocetta.gNodeB2.x2ppp[1].ppp.queue packetPushed:vector(packetBytes) ETV
attr interpolationmode none
attr title "packet pushed, vector(packetBytes)"
vector 211 Crocetta.gNodeB2.x2ppp[1].ppp.queue queueLength:vector ETV
attr autoWarmupFilter false
attr interpolationmode sample-hold
attr source "warmup(count(packetPushed) - count(packetPulled) - count(packetRemoved) - count(packetDropped))"
attr title "queue length, vector"
attr type int
vector 212 Crocetta.gNodeB2.x2ppp[1].ppp.queue packetPulled:vector(packetBytes) ETV
attr interpolationmode none
attr title "packet pulled, vector(packetBytes)"
vector 213 Crocetta.gNodeB2.x2ppp[1].ppp.queue queueingTime:vector ETV
attr interpolationmode none
attr source queueingTime(packetPulled)
attr title "queueing times, vector"
attr unit s
vector 214 Crocetta.gNodeB2.x2ppp[1].ppp txPk:vector(packetBytes) ETV
attr interpolationmode none
attr source packetSentToLower
attr title "packets transmitted, vector(packetBytes)"
vector 215 Crocetta.gNodeB3.x2ppp[0].ppp rcvdPkFromHl:vector(packetBytes) ETV
attr interpolationmode none
attr source packetReceivedFromUpper
attr title "packets received from higher layer, vector(packetBytes)"
vector 216 Crocetta.gNodeB3.x2ppp[0].ppp.queue packetPushed:vector(packetBytes) ETV
attr interpolationmode none
attr title "packet pushed, vector(packetBytes)"
vector 217 Crocetta.gNodeB3.x2ppp[0].ppp.queue queueLength:vector ETV
attr autoWarmupFilter false
attr interpolationmode sample-hold
attr source "warmup(count(packetPushed) - count(packetPulled) - count(packetRemoved) - count(packetDropped))"
attr title "queue length, vector"
attr type int
vector 218 Crocetta.gNodeB3.x2ppp[0].ppp.queue packetPulled:vector(packetBytes) ETV
attr interpolationmode none
attr title "packet pulled, vector(packetBytes)"
vector 219 Crocetta.gNodeB3.x2ppp[0].ppp.queue queueingTime:vector ETV
attr interpolationmode none
attr source queueingTime(packetPulled)
attr title "queueing times, vector"
attr unit s
vector 220 Crocetta.gNodeB3.x2ppp[0].ppp txPk:vector(packetBytes) ETV
attr interpolationmode none
attr source packetSentToLower
attr title "packets transmitted, vector(packetBytes)"
vector 221 Crocetta.gNodeB3.x2ppp[1].ppp rcvdPkFromHl:vector(packetBytes) ETV
attr interpolationmode none
attr source packetReceivedFromUpper
attr title "packets received from higher layer, vector(packetBytes)"
vector 222 Crocetta.gNodeB3.x2ppp[1].ppp.queue packetPushed:vector(packetBytes) ETV
attr interpolationmode none
attr title "packet pushed, vector(packetBytes)"
vector 223 Crocetta.gNodeB3.x2ppp[1].ppp.queue queueLength:vector ETV
attr autoWarmupFilter false
attr interpolationmode sample-hold
attr source "warmup(count(packetPushed) - count(packetPulled) - count(packetRemoved) - count(packetDropped))"
attr title "queue length, vector"
attr type int
vector 224 Crocetta.gNodeB3.x2ppp[1].ppp.queue packetPulled:vector(packetBytes) ETV
attr interpolationmode none
attr title "packet pulled, vector(packetBytes)"
vector 225 Crocetta.gNodeB3.x2ppp[1].ppp.queue queueingTime:vector ETV
attr interpolationmode none
attr source queueingTime(packetPulled)
attr title "queueing times, vector"
attr unit s
vector 226 Crocetta.gNodeB3.x2ppp[1].ppp txPk:vector(packetBytes) ETV
attr interpolationmode none
attr source packetSentToLower
attr title "packets transmitted, vector(packetBytes)"
vector 227 Crocetta.gNodeB4.x2ppp[0].ppp rcvdPkFromHl:vector(packetBytes) ETV
attr interpolationmode none
attr source packetReceivedFromUpper
attr title "packets received from higher layer, vector(packetBytes)"
vector 228 Crocetta.gNodeB4.x2ppp[0].ppp.queue packetPushed:vector(packetBytes) ETV
attr interpolationmode none
attr title "packet pushed, vector(packetBytes)"
vector 229 Crocetta.gNodeB4.x2ppp[0].ppp.queue queueLength:vector ETV
attr autoWarmupFilter false
attr interpolationmode sample-hold
attr source "warmup(count(packetPushed) - count(packetPulled) - count(packetRemoved) - count(packetDropped))"
attr title "queue length, vector"
attr type int
vector 230 Crocetta.gNodeB4.x2ppp[0].ppp.queue packetPulled:vector(packetBytes) ETV
attr interpolationmode none
attr title "packet pulled, vector(packetBytes)"
vector 231 Crocetta.gNodeB4.x2ppp[0].ppp.queue queueingTime:vector ETV
attr interpolationmode none
attr source queueingTime(packetPulled)
attr title "queueing times, vector"
attr unit s
vector 232 Crocetta.gNodeB4.x2ppp[0].ppp txPk:vector(packetBytes) ETV
attr interpolationmode none
attr source packetSentToLower
attr title "packets transmitted, vector(packetBytes)"
vector 233 Crocetta.gNodeB4.x2ppp[1].ppp rcvdPkFromHl:vector(packetBytes) ETV
attr interpolationmode none
attr source packetReceivedFromUpper
attr title "packets received from higher layer, vector(packetBytes)"
vector 234 Crocetta.gNodeB4.x2ppp[1].ppp.queue packetPushed:vector(packetBytes) ETV
attr interpolationmode none
attr title "packet pushed, vector(packetBytes)"
vector 235 Crocetta.gNodeB4.x2ppp[1].ppp.queue queueLength:vector ETV
attr autoWarmupFilter false
attr interpolationmode sample-hold
attr source "warmup(count(packetPushed) - count(packetPulled) - count(packetRemoved) - count(packetDropped))"
attr title "queue length, vector"
attr type int
vector 236 Crocetta.gNodeB4.x2ppp[1].ppp.queue packetPulled:vector(packetBytes) ETV
attr interpolationmode none
attr title "packet pulled, vector(packetBytes)"
vector 237 Crocetta.gNodeB4.x2ppp[1].ppp.queue queueingTime:vector ETV
attr interpolationmode none
attr source queueingTime(packetPulled)
attr title "queueing times, vector"
attr unit s
vector 238 Crocetta.gNodeB4.x2ppp[1].ppp txPk:vector(packetBytes) ETV
attr interpolationmode none
attr source packetSentToLower
attr title "packets transmitted, vector(packetBytes)"
vector 239 Crocetta.gNodeB5.x2ppp[0].ppp rcvdPkFromHl:vector(packetBytes) ETV
attr interpolationmode none
attr source packetReceivedFromUpper
attr title "packets received from higher layer, vector(packetBytes)"
vector 240 Crocetta.gNodeB5.x2ppp[0].ppp.queue packetPushed:vector(packetBytes) ETV
attr interpolationmode none
attr title "packet pushed, vector(packetBytes)"
vector 241 Crocetta.gNodeB5.x2ppp[0].ppp.queue queueLength:vector ETV
attr autoWarmupFilter false
attr interpolationmode sample-hold
attr source "warmup(count(packetPushed) - count(packetPulled) - count(packetRemoved) - count(packetDropped))"
attr title "queue length, vector"
attr type int
vector 242 Crocetta.gNodeB5.x2ppp[0].ppp.queue packetPulled:vector(packetBytes) ETV
attr interpolationmode none
attr title "packet pulled, vector(packetBytes)"
vector 243 Crocetta.gNodeB5.x2ppp[0].ppp.queue queueingTime:vector ETV
attr interpolationmode none
attr source queueingTime(packetPulled)
attr title "queueing times, vector"
attr unit s
vector 244 Crocetta.gNodeB5.x2ppp[0].ppp txPk:vector(packetBytes) ETV
attr interpolationmode none
attr source packetSentToLower
attr title "packets transmitted, vector(packetBytes)"
vector 245 Crocetta.gNodeB5.x2ppp[1].ppp rcvdPkFromHl:vector(packetBytes) ETV
attr interpolationmode none
attr source packetReceivedFromUpper
attr title "packets received from higher layer, vector(packetBytes)"
vector 246 Crocetta.gNodeB5.x2ppp[1].ppp.queue packetPushed:vector(packetBytes) ETV
attr interpolationmode none
attr title "packet pushed, vector(packetBytes)"
vector 247 Crocetta.gNodeB5.x2ppp[1].ppp.queue queueLength:vector ETV
attr autoWarmupFilter false
attr interpolationmode sample-hold
attr source "warmup(count(packetPushed) - count(packetPulled) - count(packetRemoved) - count(packetDropped))"
attr title "queue length, vector"
attr type int
vector 248 Crocetta.gNodeB5.x2ppp[1].ppp.queue packetPulled:vector(packetBytes) ETV
attr interpolationmode none
attr title "packet pulled, vector(packetBytes)"
vector 249 Crocetta.gNodeB5.x2ppp[1].ppp.queue queueingTime:vector ETV
attr interpolationmode none
attr source queueingTime(packetPulled)
attr title "queueing times, vector"
attr unit s
vector 250 Crocetta.gNodeB5.x2ppp[1].ppp txPk:vector(packetBytes) ETV
attr interpolationmode none
attr source packetSentToLower
attr title "packets transmitted, vector(packetBytes)"
vector 251 Crocetta.gNodeB6.x2ppp[0].ppp rcvdPkFromHl:vector(packetBytes) ETV
attr interpolationmode none
attr source packetReceivedFromUpper
attr title "packets received from higher layer, vector(packetBytes)"
vector 252 Crocetta.gNodeB6.x2ppp[0].ppp.queue packetPushed:vector(packetBytes) ETV
attr interpolationmode none
attr title "packet pushed, vector(packetBytes)"
vector 253 Crocetta.gNodeB6.x2ppp[0].ppp.queue queueLength:vector ETV
attr autoWarmupFilter false
attr interpolationmode sample-hold
attr source "warmup(count(packetPushed) - count(packetPulled) - count(packetRemoved) - count(packetDropped))"
attr title "queue length, vector"
attr type int
vector 254 Crocetta.gNodeB6.x2ppp[0].ppp.queue packetPulled:vector(packetBytes) ETV
attr interpolationmode none
attr title "packet pulled, vector(packetBytes)"
vector 255 Crocetta.gNodeB6.x2ppp[0].ppp.queue queueingTime:vector ETV
attr interpolationmode none
attr source queueingTime(packetPulled)
attr title "queueing times, vector"
attr unit s
vector 256 Crocetta.gNodeB6.x2ppp[0].ppp txPk:vector(packetBytes) ETV
attr interpolationmode none
attr source packetSentToLower
attr title "packets transmitted, vector(packetBytes)"
vector 257 Crocetta.gNodeB6.x2ppp[1].ppp rcvdPkFromHl:vector(packetBytes) ETV
attr interpolationmode none
attr source packetReceivedFromUpper
attr title "packets received from higher layer, vector(packetBytes)"
vector 258 Crocetta.gNodeB6.x2ppp[1].ppp.queue packetPushed:vector(packetBytes) ETV
attr interpolationmode none
attr title "packet pushed, vector(packetBytes)"
vector 259 Crocetta.gNodeB6.x2ppp[1].ppp.queue queueLength:vector ETV
attr autoWarmupFilter false
attr interpolationmode sample-hold
attr source "warmup(count(packetPushed) - count(packetPulled) - count(packetRemoved) - count(packetDropped))"
attr title "queue length, vector"
attr type int
vector 260 Crocetta.gNodeB6.x2ppp[1].ppp.queue packetPulled:vector(packetBytes) ETV
attr interpolationmode none
attr title "packet pulled, vector(packetBytes)"
vector 261 Crocetta.gNodeB6.x2ppp[1].ppp.queue queueingTime:vector ETV
attr interpolationmode none
attr source queueingTime(packetPulled)
attr title "queueing times, vector"
attr unit s
vector 262 Crocetta.gNodeB6.x2ppp[1].ppp txPk:vector(packetBytes) ETV
attr interpolationmode none
attr source packetSentToLower
attr title "packets transmitted, vector(packetBytes)"
vector 263 Crocetta.gNodeB7.x2ppp[0].ppp rcvdPkFromHl:vector(packetBytes) ETV
attr interpolationmode none
attr source packetReceivedFromUpper
attr title "packets received from higher layer, vector(packetBytes)"
vector 264 Crocetta.gNodeB7.x2ppp[0].ppp.queue packetPushed:vector(packetBytes) ETV
attr interpolationmode none
attr title "packet pushed, vector(packetBytes)"
vector 265 Crocetta.gNodeB7.x2ppp[0].ppp.queue queueLength:vector ETV
attr autoWarmupFilter false
attr interpolationmode sample-hold
attr source "warmup(count(packetPushed) - count(packetPulled) - count(packetRemoved) - count(packetDropped))"
attr title "queue length, vector"
attr type int
vector 266 Crocetta.gNodeB7.x2ppp[0].ppp.queue packetPulled:vector(packetBytes) ETV
attr interpolationmode none
attr title "packet pulled, vector(packetBytes)"
vector 267 Crocetta.gNodeB7.x2ppp[0].ppp.queue queueingTime:vector ETV
attr interpolationmode none
attr source queueingTime(packetPulled)
attr title "queueing times, vector"
attr unit s
vector 268 Crocetta.gNodeB7.x2ppp[0].ppp txPk:vector(packetBytes) ETV
attr interpolationmode none
attr source packetSentToLower
attr title "packets transmitted, vector(packetBytes)"
vector 269 Crocetta.gNodeB7.x2ppp[1].ppp rcvdPkFromHl:vector(packetBytes) ETV
attr interpolationmode none
attr source packetReceivedFromUpper
attr title "packets received from higher layer, vector(packetBytes)"
vector 270 Crocetta.gNodeB7.x2ppp[1].ppp.queue packetPushed:vector(packetBytes) ETV
attr interpolationmode none
attr title "packet pushed, vector(packetBytes)"
vector 271 Crocetta.gNodeB7.x2ppp[1].ppp.queue queueLength:vector ETV
attr autoWarmupFilter false
attr interpolationmode sample-hold
attr source "warmup(count(packetPushed) - count(packetPulled) - count(packetRemoved) - count(packetDropped))"
attr title "queue length, vector"
attr type int
vector 272 Crocetta.gNodeB7.x2ppp[1].ppp.queue packetPulled:vector(packetBytes) ETV
attr interpolationmode none
attr title "packet pulled, vector(packetBytes)"
vector 273 Crocetta.gNodeB7.x2ppp[1].ppp.queue queueingTime:vector ETV
attr interpolationmode none
attr source queueingTime(packetPulled)
attr title "queueing times, vector"
attr unit s
vector 274 Crocetta.gNodeB7.x2ppp[1].ppp txPk:vector(packetBytes) ETV
attr interpolationmode none
attr source packetSentToLower
attr title "packets transmitted, vector(packetBytes)"
vector 275 Crocetta.gNodeB8.x2ppp[0].ppp rcvdPkFromHl:vector(packetBytes) ETV
attr interpolationmode none
attr source packetReceivedFromUpper
attr title "packets received from higher layer, vector(packetBytes)"
vector 276 Crocetta.gNodeB8.x2ppp[0].ppp.queue packetPushed:vector(packetBytes) ETV
attr interpolationmode none
attr title "packet pushed, vector(packetBytes)"
vector 277 Crocetta.gNodeB8.x2ppp[0].ppp.queue queueLength:vector ETV
attr autoWarmupFilter false
attr interpolationmode sample-hold
attr source "warmup(count(packetPushed) - count(packetPulled) - count(packetRemoved) - count(packetDropped))"
attr title "queue length, vector"
attr type int
vector 278 Crocetta.gNodeB8.x2ppp[0].ppp.queue packetPulled:vector(packetBytes) ETV
attr interpolationmode none
attr title "packet pulled, vector(packetBytes)"
vector 279 Crocetta.gNodeB8.x2ppp[0].ppp.queue queueingTime:vector ETV
attr interpolationmode none
attr source queueingTime(packetPulled)
attr title "queueing times, vector"
attr unit s
vector 280 Crocetta.gNodeB8.x2ppp[0].ppp txPk:vector(packetBytes) ETV
attr interpolationmode none
attr source packetSentToLower
attr title "packets transmitted, vector(packetBytes)"
vector 281 Crocetta.gNodeB8.x2ppp[1].ppp rcvdPkFromHl:vector(packetBytes) ETV
attr interpolationmode none
attr source packetReceivedFromUpper
attr title "packets received from higher layer, vector(packetBytes)"
vector 282 Crocetta.gNodeB8.x2ppp[1].ppp.queue packetPushed:vector(packetBytes) ETV
attr interpolationmode none
attr title "packet pushed, vector(packetBytes)"
vector 283 Crocetta.gNodeB8.x2ppp[1].ppp.queue queueLength:vector ETV
attr autoWarmupFilter false
attr interpolationmode sample-hold
attr source "warmup(count(packetPushed) - count(packetPulled) - count(packetRemoved) - count(packetDropped))"
attr title "queue length, vector"
attr type int
vector 284 Crocetta.gNodeB8.x2ppp[1].ppp.queue packetPulled:vector(packetBytes) ETV
attr interpolationmode none
attr title "packet pulled, vector(packetBytes)"
vector 285 Crocetta.gNodeB8.x2ppp[1].ppp.queue queueingTime:vector ETV
attr interpolationmode none
attr source queueingTime(packetPulled)
attr title "queueing times, vector"
attr unit s
vector 286 Crocetta.gNodeB8.x2ppp[1].ppp txPk:vector(packetBytes) ETV
attr interpolationmode none
attr source packetSentToLower
attr title "packets transmitted, vector(packetBytes)"
vector 287 Crocetta.gNodeB9.x2ppp[0].ppp rcvdPkFromHl:vector(packetBytes) ETV
attr interpolationmode none
attr source packetReceivedFromUpper
attr title "packets received from higher layer, vector(packetBytes)"
vector 288 Crocetta.gNodeB9.x2ppp[0].ppp.queue packetPushed:vector(packetBytes) ETV
attr interpolationmode none
attr title "packet pushed, vector(packetBytes)"
vector 289 Crocetta.gNodeB9.x2ppp[0].ppp.queue queueLength:vector ETV
attr autoWarmupFilter false
attr interpolationmode sample-hold
attr source "warmup(count(packetPushed) - count(packetPulled) - count(packetRemoved) - count(packetDropped))"
attr title "queue length, vector"
attr type int
vector 290 Crocetta.gNodeB9.x2ppp[0].ppp.queue packetPulled:vector(packetBytes) ETV
attr interpolationmode none
attr title "packet pulled, vector(packetBytes)"
vector 291 Crocetta.gNodeB9.x2ppp[0].ppp.queue queueingTime:vector ETV
attr interpolationmode none
attr source queueingTime(packetPulled)
attr title "queueing times, vector"
attr unit s
vector 292 Crocetta.gNodeB9.x2ppp[0].ppp txPk:vector(packetBytes) ETV
attr interpolationmode none
attr source packetSentToLower
attr title "packets transmitted, vector(packetBytes)"
vector 293 Crocetta.gNodeB9.x2ppp[1].ppp rcvdPkFromHl:vector(packetBytes) ETV
attr interpolationmode none
attr source packetReceivedFromUpper
attr title "packets received from higher layer, vector(packetBytes)"
vector 294 Crocetta.gNodeB9.x2ppp[1].ppp.queue packetPushed:vector(packetBytes) ETV
attr interpolationmode none
attr title "packet pushed, vector(packetBytes)"
vector 295 Crocetta.gNodeB9.x2ppp[1].ppp.queue queueLength:vector ETV
attr autoWarmupFilter false
attr interpolationmode sample-hold
attr source "warmup(count(packetPushed) - count(packetPulled) - count(packetRemoved) - count(packetDropped))"
attr title "queue length, vector"
attr type int
vector 296 Crocetta.gNodeB9.x2ppp[1].ppp.queue packetPulled:vector(packetBytes) ETV
attr interpolationmode none
attr title "packet pulled, vector(packetBytes)"
vector 297 Crocetta.gNodeB9.x2ppp[1].ppp.queue queueingTime:vector ETV
attr interpolationmode none
attr source queueingTime(packetPulled)
attr title "queueing times, vector"
attr unit s
vector 298 Crocetta.gNodeB9.x2ppp[1].ppp txPk:vector(packetBytes) ETV
attr interpolationmode none
attr source packetSentToLower
attr title "packets transmitted, vector(packetBytes)"
vector 299 Crocetta.gNodeB10.x2ppp[0].ppp rcvdPkFromHl:vector(packetBytes) ETV
attr interpolationmode none
attr source packetReceivedFromUpper
attr title "packets received from higher layer, vector(packetBytes)"
vector 300 Crocetta.gNodeB10.x2ppp[0].ppp.queue packetPushed:vector(packetBytes) ETV
attr interpolationmode none
attr title "packet pushed, vector(packetBytes)"
vector 301 Crocetta.gNodeB10.x2ppp[0].ppp.queue queueLength:vector ETV
attr autoWarmupFilter false
attr interpolationmode sample-hold
attr source "warmup(count(packetPushed) - count(packetPulled) - count(packetRemoved) - count(packetDropped))"
attr title "queue length, vector"
attr type int
vector 302 Crocetta.gNodeB10.x2ppp[0].ppp.queue packetPulled:vector(packetBytes) ETV
attr interpolationmode none
attr title "packet pulled, vector(packetBytes)"
vector 303 Crocetta.gNodeB10.x2ppp[0].ppp.queue queueingTime:vector ETV
attr interpolationmode none
attr source queueingTime(packetPulled)
attr title "queueing times, vector"
attr unit s
vector 304 Crocetta.gNodeB10.x2ppp[0].ppp txPk:vector(packetBytes) ETV
attr interpolationmode none
attr source packetSentToLower
attr title "packets transmitted, vector(packetBytes)"
vector 305 Crocetta.gNodeB10.x2ppp[1].ppp rcvdPkFromHl:vector(packetBytes) ETV
attr interpolationmode none
attr source packetReceivedFromUpper
attr title "packets received from higher layer, vector(packetBytes)"
vector 306 Crocetta.gNodeB10.x2ppp[1].ppp.queue packetPushed:vector(packetBytes) ETV
attr interpolationmode none
attr title "packet pushed, vector(packetBytes)"
vector 307 Crocetta.gNodeB10.x2ppp[1].ppp.queue queueLength:vector ETV
attr autoWarmupFilter false
attr interpolationmode sample-hold
attr source "warmup(count(packetPushed) - count(packetPulled) - count(packetRemoved) - count(packetDropped))"
attr title "queue length, vector"
attr type int
vector 308 Crocetta.gNodeB10.x2ppp[1].ppp.queue packetPulled:vector(packetBytes) ETV
attr interpolationmode none
attr title "packet pulled, vector(packetBytes)"
vector 309 Crocetta.gNodeB10.x2ppp[1].ppp.queue queueingTime:vector ETV
attr interpolationmode none
attr source queueingTime(packetPulled)
attr title "queueing times, vector"
attr unit s
vector 310 Crocetta.gNodeB10.x2ppp[1].ppp txPk:vector(packetBytes) ETV
attr interpolationmode none
attr source packetSentToLower
attr title "packets transmitted, vector(packetBytes)"
vector 311 Crocetta.gNodeB11.x2ppp[0].ppp rcvdPkFromHl:vector(packetBytes) ETV
attr interpolationmode none
attr source packetReceivedFromUpper
attr title "packets received from higher layer, vector(packetBytes)"
vector 312 Crocetta.gNodeB11.x2ppp[0].ppp.queue packetPushed:vector(packetBytes) ETV
attr interpolationmode none
attr title "packet pushed, vector(packetBytes)"
vector 313 Crocetta.gNodeB11.x2ppp[0].ppp.queue queueLength:vector ETV
attr autoWarmupFilter false
attr interpolationmode sample-hold
attr source "warmup(count(packetPushed) - count(packetPulled) - count(packetRemoved) - count(packetDropped))"
attr title "queue length, vector"
attr type int
vector 314 Crocetta.gNodeB11.x2ppp[0].ppp.queue packetPulled:vector(packetBytes) ETV
attr interpolationmode none
attr title "packet pulled, vector(packetBytes)"
vector 315 Crocetta.gNodeB11.x2ppp[0].ppp.queue queueingTime:vector ETV
attr interpolationmode none
attr source queueingTime(packetPulled)
attr title "queueing times, vector"
attr unit s
vector 316 Crocetta.gNodeB11.x2ppp[0].ppp txPk:vector(packetBytes) ETV
attr interpolationmode none
attr source packetSentToLower
attr title "packets transmitted, vector(packetBytes)"
vector 317 Crocetta.gNodeB11.x2ppp[1].ppp rcvdPkFromHl:vector(packetBytes) ETV
attr interpolationmode none
attr source packetReceivedFromUpper
attr title "packets received from higher layer, vector(packetBytes)"
vector 318 Crocetta.gNodeB11.x2ppp[1].ppp.queue packetPushed:vector(packetBytes) ETV
attr interpolationmode none
attr title "packet pushed, vector(packetBytes)"
vector 319 Crocetta.gNodeB11.x2ppp[1].ppp.queue queueLength:vector ETV
attr autoWarmupFilter false
attr interpolationmode sample-hold
attr source "warmup(count(packetPushed) - count(packetPulled) - count(packetRemoved) - count(packetDropped))"
attr title "queue length, vector"
attr type int
vector 320 Crocetta.gNodeB11.x2ppp[1].ppp.queue packetPulled:vector(packetBytes) ETV
attr interpolationmode none
attr title "packet pulled, vector(packetBytes)"
vector 321 Crocetta.gNodeB11.x2ppp[1].ppp.queue queueingTime:vector ETV
attr interpolationmode none
attr source queueingTime(packetPulled)
attr title "queueing times, vector"
attr unit s
vector 322 Crocetta.gNodeB11.x2ppp[1].ppp txPk:vector(packetBytes) ETV
attr interpolationmode none
attr source packetSentToLower
attr title "packets transmitted, vector(packetBytes)"
vector 323 Crocetta.gNodeB12.x2ppp[0].ppp rcvdPkFromHl:vector(packetBytes) ETV
attr interpolationmode none
attr source packetReceivedFromUpper
attr title "packets received from higher layer, vector(packetBytes)"
vector 324 Crocetta.gNodeB12.x2ppp[0].ppp.queue packetPushed:vector(packetBytes) ETV
attr interpolationmode none
attr title "packet pushed, vector(packetBytes)"
vector 325 Crocetta.gNodeB12.x2ppp[0].ppp.queue queueLength:vector ETV
attr autoWarmupFilter false
attr interpolationmode sample-hold
attr source "warmup(count(packetPushed) - count(packetPulled) - count(packetRemoved) - count(packetDropped))"
attr title "queue length, vector"
attr type int
vector 326 Crocetta.gNodeB12.x2ppp[0].ppp.queue packetPulled:vector(packetBytes) ETV
attr interpolationmode none
attr title "packet pulled, vector(packetBytes)"
vector 327 Crocetta.gNodeB12.x2ppp[0].ppp.queue queueingTime:vector ETV
attr interpolationmode none
attr source queueingTime(packetPulled)
attr title "queueing times, vector"
attr unit s
vector 328 Crocetta.gNodeB12.x2ppp[0].ppp txPk:vector(packetBytes) ETV
attr interpolationmode none
attr source packetSentToLower
attr title "packets transmitted, vector(packetBytes)"
vector 329 Crocetta.gNodeB12.x2ppp[1].ppp rcvdPkFromHl:vector(packetBytes) ETV
attr interpolationmode none
attr source packetReceivedFromUpper
attr title "packets received from higher layer, vector(packetBytes)"
vector 330 Crocetta.gNodeB12.x2ppp[1].ppp.queue packetPushed:vector(packetBytes) ETV
attr interpolationmode none
attr title "packet pushed, vector(packetBytes)"
vector 331 Crocetta.gNodeB12.x2ppp[1].ppp.queue queueLength:vector ETV
attr autoWarmupFilter false
attr interpolationmode sample-hold
attr source "warmup(count(packetPushed) - count(packetPulled) - count(packetRemoved) - count(packetDropped))"
attr title "queue length, vector"
attr type int
vector 332 Crocetta.gNodeB12.x2ppp[1].ppp.queue packetPulled:vector(packetBytes) ETV
attr interpolationmode none
attr title "packet pulled, vector(packetBytes)"
vector 333 Crocetta.gNodeB12.x2ppp[1].ppp.queue queueingTime:vector ETV
attr interpolationmode none
attr source queueingTime(packetPulled)
attr title "queueing times, vector"
attr unit s
vector 334 Crocetta.gNodeB12.x2ppp[1].ppp txPk:vector(packetBytes) ETV
attr interpolationmode none
attr source packetSentToLower
attr title "packets transmitted, vector(packetBytes)"
vector 335 Crocetta.gNodeB13.x2ppp[0].ppp rcvdPkFromHl:vector(packetBytes) ETV
attr interpolationmode none
attr source packetReceivedFromUpper
attr title "packets received from higher layer, vector(packetBytes)"
vector 336 Crocetta.gNodeB13.x2ppp[0].ppp.queue packetPushed:vector(packetBytes) ETV
attr interpolationmode none
attr title "packet pushed, vector(packetBytes)"
vector 337 Crocetta.gNodeB13.x2ppp[0].ppp.queue queueLength:vector ETV
attr autoWarmupFilter false
attr interpolationmode sample-hold
attr source "warmup(count(packetPushed) - count(packetPulled) - count(packetRemoved) - count(packetDropped))"
attr title "queue length, vector"
attr type int
vector 338 Crocetta.gNodeB13.x2ppp[0].ppp.queue packetPulled:vector(packetBytes) ETV
attr interpolationmode none
attr title "packet pulled, vector(packetBytes)"
vector 339 Crocetta.gNodeB13.x2ppp[0].ppp.queue queueingTime:vector ETV
attr interpolationmode none
attr source queueingTime(packetPulled)
attr title "queueing times, vector"
attr unit s
vector 340 Crocetta.gNodeB13.x2ppp[0].ppp txPk:vector(packetBytes) ETV
attr interpolationmode none
attr source packetSentToLower
attr title "packets transmitted, vector(packetBytes)"
vector 341 Crocetta.gNodeB13.x2ppp[1].ppp rcvdPkFromHl:vector(packetBytes) ETV
attr interpolationmode none
attr source packetReceivedFromUpper
attr title "packets received from higher layer, vector(packetBytes)"
vector 342 Crocetta.gNodeB13.x2ppp[1].ppp.queue packetPushed:vector(packetBytes) ETV
attr interpolationmode none
attr title "packet pushed, vector(packetBytes)"
vector 343 Crocetta.gNodeB13.x2ppp[1].ppp.queue queueLength:vector ETV
attr autoWarmupFilter false
attr interpolationmode sample-hold
attr source "warmup(count(packetPushed) - count(packetPulled) - count(packetRemoved) - count(packetDropped))"
attr title "queue length, vector"
attr type int
vector 344 Crocetta.gNodeB13.x2ppp[1].ppp.queue packetPulled:vector(packetBytes) ETV
attr interpolationmode none
attr title "packet pulled, vector(packetBytes)"
vector 345 Crocetta.gNodeB13.x2ppp[1].ppp.queue queueingTime:vector ETV
attr interpolationmode none
attr source queueingTime(packetPulled)
attr title "queueing times, vector"
attr unit s
vector 346 Crocetta.gNodeB13.x2ppp[1].ppp txPk:vector(packetBytes) ETV
attr interpolationmode none
attr source packetSentToLower
attr title "packets transmitted, vector(packetBytes)"
vector 347 Crocetta.gNodeB14.x2ppp[0].ppp rcvdPkFromHl:vector(packetBytes) ETV
attr interpolationmode none
attr source packetReceivedFromUpper
attr title "packets received from higher layer, vector(packetBytes)"
vector 348 Crocetta.gNodeB14.x2ppp[0].ppp.queue packetPushed:vector(packetBytes) ETV
attr interpolationmode none
attr title "packet pushed, vector(packetBytes)"
vector 349 Crocetta.gNodeB14.x2ppp[0].ppp.queue queueLength:vector ETV
attr autoWarmupFilter false
attr interpolationmode sample-hold
attr source "warmup(count(packetPushed) - count(packetPulled) - count(packetRemoved) - count(packetDropped))"
attr title "queue length, vector"
attr type int
vector 350 Crocetta.gNodeB14.x2ppp[0].ppp.queue packetPulled:vector(packetBytes) ETV
attr interpolationmode none
attr title "packet pulled, vector(packetBytes)"
vector 351 Crocetta.gNodeB14.x2ppp[0].ppp.queue queueingTime:vector ETV
attr interpolationmode none
attr source queueingTime(packetPulled)
attr title "queueing times, vector"
attr unit s
vector 352 Crocetta.gNodeB14.x2ppp[0].ppp txPk:vector(packetBytes) ETV
attr interpolationmode none
attr source packetSentToLower
attr title "packets transmitted, vector(packetBytes)"
vector 353 Crocetta.gNodeB14.x2ppp[1].ppp rcvdPkFromHl:vector(packetBytes) ETV
attr interpolationmode none
attr source packetReceivedFromUpper
attr title "packets received from higher layer, vector(packetBytes)"
vector 354 Crocetta.gNodeB14.x2ppp[1].ppp.queue packetPushed:vector(packetBytes) ETV
attr interpolationmode none
attr title "packet pushed, vector(packetBytes)"
vector 355 Crocetta.gNodeB14.x2ppp[1].ppp.queue queueLength:vector ETV
attr autoWarmupFilter false
attr interpolationmode sample-hold
attr source "warmup(count(packetPushed) - count(packetPulled) - count(packetRemoved) - count(packetDropped))"
attr title "queue length, vector"
attr type int
vector 356 Crocetta.gNodeB14.x2ppp[1].ppp.queue packetPulled:vector(packetBytes) ETV
attr interpolationmode none
attr title "packet pulled, vector(packetBytes)"
vector 357 Crocetta.gNodeB14.x2ppp[1].ppp.queue queueingTime:vector ETV
attr interpolationmode none
attr source queueingTime(packetPulled)
attr title "queueing times, vector"
attr unit s
vector 358 Crocetta.gNodeB14.x2ppp[1].ppp txPk:vector(packetBytes) ETV
attr interpolationmode none
attr source packetSentToLower
attr title "packets transmitted, vector(packetBytes)"
vector 359 Crocetta.gNodeB15.x2ppp[0].ppp rcvdPkFromHl:vector(packetBytes) ETV
attr interpolationmode none
attr source packetReceivedFromUpper
attr title "packets received from higher layer, vector(packetBytes)"
vector 360 Crocetta.gNodeB15.x2ppp[0].ppp.queue packetPushed:vector(packetBytes) ETV
attr interpolationmode none
attr title "packet pushed, vector(packetBytes)"
vector 361 Crocetta.gNodeB15.x2ppp[0].ppp.queue queueLength:vector ETV
attr autoWarmupFilter false
attr interpolationmode sample-hold
attr source "warmup(count(packetPushed) - count(packetPulled) - count(packetRemoved) - count(packetDropped))"
attr title "queue length, vector"
attr type int
vector 362 Crocetta.gNodeB15.x2ppp[0].ppp.queue packetPulled:vector(packetBytes) ETV
attr interpolationmode none
attr title "packet pulled, vector(packetBytes)"
vector 363 Crocetta.gNodeB15.x2ppp[0].ppp.queue queueingTime:vector ETV
attr interpolationmode none
attr source queueingTime(packetPulled)
attr title "queueing times, vector"
attr unit s
vector 364 Crocetta.gNodeB15.x2ppp[0].ppp txPk:vector(packetBytes) ETV
attr interpolationmode none
attr source packetSentToLower
attr title "packets transmitted, vector(packetBytes)"
vector 365 Crocetta.gNodeB15.x2ppp[1].ppp rcvdPkFromHl:vector(packetBytes) ETV
attr interpolationmode none
attr source packetReceivedFromUpper
attr title "packets received from higher layer, vector(packetBytes)"
vector 366 Crocetta.gNodeB15.x2ppp[1].ppp.queue packetPushed:vector(packetBytes) ETV
attr interpolationmode none
attr title "packet pushed, vector(packetBytes)"
vector 367 Crocetta.gNodeB15.x2ppp[1].ppp.queue queueLength:vector ETV
attr autoWarmupFilter false
attr interpolationmode sample-hold
attr source "warmup(count(packetPushed) - count(packetPulled) - count(packetRemoved) - count(packetDropped))"
attr title "queue length, vector"
attr type int
vector 368 Crocetta.gNodeB15.x2ppp[1].ppp.queue packetPulled:vector(packetBytes) ETV
attr interpolationmode none
attr title "packet pulled, vector(packetBytes)"
vector 369 Crocetta.gNodeB15.x2ppp[1].ppp.queue queueingTime:vector ETV
attr interpolationmode none
attr source queueingTime(packetPulled)
attr title "queueing times, vector"
attr unit s
vector 370 Crocetta.gNodeB15.x2ppp[1].ppp txPk:vector(packetBytes) ETV
attr interpolationmode none
attr source packetSentToLower
attr title "packets transmitted, vector(packetBytes)"
vector 371 Crocetta.gNodeB16.x2ppp[0].ppp rcvdPkFromHl:vector(packetBytes) ETV
attr interpolationmode none
attr source packetReceivedFromUpper
attr title "packets received from higher layer, vector(packetBytes)"
vector 372 Crocetta.gNodeB16.x2ppp[0].ppp.queue packetPushed:vector(packetBytes) ETV
attr interpolationmode none
attr title "packet pushed, vector(packetBytes)"
vector 373 Crocetta.gNodeB16.x2ppp[0].ppp.queue queueLength:vector ETV
attr autoWarmupFilter false
attr interpolationmode sample-hold
attr source "warmup(count(packetPushed) - count(packetPulled) - count(packetRemoved) - count(packetDropped))"
attr title "queue length, vector"
attr type int
vector 374 Crocetta.gNodeB16.x2ppp[0].ppp.queue packetPulled:vector(packetBytes) ETV
attr interpolationmode none
attr title "packet pulled, vector(packetBytes)"
vector 375 Crocetta.gNodeB16.x2ppp[0].ppp.queue queueingTime:vector ETV
attr interpolationmode none
attr source queueingTime(packetPulled)
attr title "queueing times, vector"
attr unit s
vector 376 Crocetta.gNodeB16.x2ppp[0].ppp txPk:vector(packetBytes) ETV
attr interpolationmode none
attr source packetSentToLower
attr title "packets transmitted, vector(packetBytes)"
vector 377 Crocetta.gNodeB16.x2ppp[1].ppp rcvdPkFromHl:vector(packetBytes) ETV
attr interpolationmode none
attr source packetReceivedFromUpper
attr title "packets received from higher layer, vector(packetBytes)"
vector 378 Crocetta.gNodeB16.x2ppp[1].ppp.queue packetPushed:vector(packetBytes) ETV
attr interpolationmode none
attr title "packet pushed, vector(packetBytes)"
vector 379 Crocetta.gNodeB16.x2ppp[1].ppp.queue queueLength:vector ETV
attr autoWarmupFilter false
attr interpolationmode sample-hold
attr source "warmup(count(packetPushed) - count(packetPulled) - count(packetRemoved) - count(packetDropped))"
attr title "queue length, vector"
attr type int
vector 380 Crocetta.gNodeB16.x2ppp[1].ppp.queue packetPulled:vector(packetBytes) ETV
attr interpolationmode none
attr title "packet pulled, vector(packetBytes)"
vector 381 Crocetta.gNodeB16.x2ppp[1].ppp.queue queueingTime:vector ETV
attr interpolationmode none
attr source queueingTime(packetPulled)
attr title "queueing times, vector"
attr unit s
vector 382 Crocetta.gNodeB16.x2ppp[1].ppp txPk:vector(packetBytes) ETV
attr interpolationmode none
attr source packetSentToLower
attr title "packets transmitted, vector(packetBytes)"
vector 383 Crocetta.gNodeB17.x2ppp[0].ppp rcvdPkFromHl:vector(packetBytes) ETV
attr interpolationmode none
attr source packetReceivedFromUpper
attr title "packets received from higher layer, vector(packetBytes)"
vector 384 Crocetta.gNodeB17.x2ppp[0].ppp.queue packetPushed:vector(packetBytes) ETV
attr interpolationmode none
attr title "packet pushed, vector(packetBytes)"
vector 385 Crocetta.gNodeB17.x2ppp[0].ppp.queue queueLength:vector ETV
attr autoWarmupFilter false
attr interpolationmode sample-hold
attr source "warmup(count(packetPushed) - count(packetPulled) - count(packetRemoved) - count(packetDropped))"
attr title "queue length, vector"
attr type int
vector 386 Crocetta.gNodeB17.x2ppp[0].ppp.queue packetPulled:vector(packetBytes) ETV
attr interpolationmode none
attr title "packet pulled, vector(packetBytes)"
vector 387 Crocetta.gNodeB17.x2ppp[0].ppp.queue queueingTime:vector ETV
attr interpolationmode none
attr source queueingTime(packetPulled)
attr title "queueing times, vector"
attr unit s
vector 388 Crocetta.gNodeB17.x2ppp[0].ppp txPk:vector(packetBytes) ETV
attr interpolationmode none
attr source packetSentToLower
attr title "packets transmitted, vector(packetBytes)"
vector 389 Crocetta.gNodeB17.x2ppp[1].ppp rcvdPkFromHl:vector(packetBytes) ETV
attr interpolationmode none
attr source packetReceivedFromUpper
attr title "packets received from higher layer, vector(packetBytes)"
vector 390 Crocetta.gNodeB17.x2ppp[1].ppp.queue packetPushed:vector(packetBytes) ETV
attr interpolationmode none
attr title "packet pushed, vector(packetBytes)"
vector 391 Crocetta.gNodeB17.x2ppp[1].ppp.queue queueLength:vector ETV
attr autoWarmupFilter false
attr interpolationmode sample-hold
attr source "warmup(count(packetPushed) - count(packetPulled) - count(packetRemoved) - count(packetDropped))"
attr title "queue length, vector"
attr type int
vector 392 Crocetta.gNodeB17.x2ppp[1].ppp.queue packetPulled:vector(packetBytes) ETV
attr interpolationmode none
attr title "packet pulled, vector(packetBytes)"
vector 393 Crocetta.gNodeB17.x2ppp[1].ppp.queue queueingTime:vector ETV
attr interpolationmode none
attr source queueingTime(packetPulled)
attr title "queueing times, vector"
attr unit s
vector 394 Crocetta.gNodeB17.x2ppp[1].ppp txPk:vector(packetBytes) ETV
attr interpolationmode none
attr source packetSentToLower
attr title "packets transmitted, vector(packetBytes)"
vector 395 Crocetta.gNodeB2.x2ppp[0].ppp rxPkOk:vector(packetBytes) ETV
attr interpolationmode none
attr source rxPkOk
attr title "packets received OK, vector(packetBytes)"
vector 396 Crocetta.gNodeB2.x2ppp[0].ppp passedUpPk:vector(packetBytes) ETV
attr interpolationmode none
attr source packetSentToUpper
attr title "packets passed to higher layer, vector(packetBytes)"
vector 397 Crocetta.gNodeB17.x2ppp[1].ppp rxPkOk:vector(packetBytes) ETV
attr interpolationmode none
attr source rxPkOk
attr title "packets received OK, vector(packetBytes)"
vector 398 Crocetta.gNodeB17.x2ppp[1].ppp passedUpPk:vector(packetBytes) ETV
attr interpolationmode none
attr source packetSentToUpper
attr title "packets passed to higher layer, vector(packetBytes)"
vector 399 Crocetta.gNodeB1.x2ppp[0].ppp rxPkOk:vector(packetBytes) ETV
attr interpolationmode none
attr source rxPkOk
attr title "packets received OK, vector(packetBytes)"
vector 400 Crocetta.gNodeB1.x2ppp[0].ppp passedUpPk:vector(packetBytes) ETV
attr interpolationmode none
attr source packetSentToUpper
attr title "packets passed to higher layer, vector(packetBytes)"
vector 401 Crocetta.gNodeB3.x2ppp[0].ppp rxPkOk:vector(packetBytes) ETV
attr interpolationmode none
attr source rxPkOk
attr title "packets received OK, vector(packetBytes)"
vector 402 Crocetta.gNodeB3.x2ppp[0].ppp passedUpPk:vector(packetBytes) ETV
attr interpolationmode none
attr source packetSentToUpper
attr title "packets passed to higher layer, vector(packetBytes)"
vector 403 Crocetta.gNodeB2.x2ppp[1].ppp rxPkOk:vector(packetBytes) ETV
attr interpolationmode none
attr source rxPkOk
attr title "packets received OK, vector(packetBytes)"
vector 404 Crocetta.gNodeB2.x2ppp[1].ppp passedUpPk:vector(packetBytes) ETV
attr interpolationmode none
attr source packetSentToUpper
attr title "packets passed to higher layer, vector(packetBytes)"
vector 405 Crocetta.gNodeB4.x2ppp[0].ppp rxPkOk:vector(packetBytes) ETV
attr interpolationmode none
attr source rxPkOk
attr title "packets received OK, vector(packetBytes)"
vector 406 Crocetta.gNodeB4.x2ppp[0].ppp passedUpPk:vector(packetBytes) ETV
attr interpolationmode none
attr source packetSentToUpper
attr title "packets passed to higher layer, vector(packetBytes)"
vector 407 Crocetta.gNodeB3.x2ppp[1].ppp rxPkOk:vector(packetBytes) ETV
attr interpolationmode none
attr source rxPkOk
attr title "packets received OK, vector(packetBytes)"
vector 408 Crocetta.gNodeB3.x2ppp[1].ppp passedUpPk:vector(packetBytes) ETV
attr interpolationmode none
attr source packetSentToUpper
attr title "packets passed to higher layer, vector(packetBytes)"
vector 409 Crocetta.gNodeB5.x2ppp[0].ppp rxPkOk:vector(packetBytes) ETV
attr interpolationmode none
attr source rxPkOk
attr title "packets received OK, vector(packetBytes)"
vector 410 Crocetta.gNodeB5.x2ppp[0].ppp passedUpPk:vector(packetBytes) ETV
attr interpolationmode none
attr source packetSentToUpper
attr title "packets passed to higher layer, vector(packetBytes)"
vector 411 Crocetta.gNodeB4.x2ppp[1].ppp rxPkOk:vector(packetBytes) ETV
attr interpolationmode none
attr source rxPkOk
attr title "packets received OK, vector(packetBytes)"
vector 412 Crocetta.gNodeB4.x2ppp[1].ppp passedUpPk:vector(packetBytes) ETV
attr interpolationmode none
attr source packetSentToUpper
attr title "packets passed to higher layer, vector(packetBytes)"
vector 413 Crocetta.gNodeB6.x2ppp[0].ppp rxPkOk:vector(packetBytes) ETV
attr interpolationmode none
attr source rxPkOk
attr title "packets received OK, vector(packetBytes)"
vector 414 Crocetta.gNodeB6.x2ppp[0].ppp passedUpPk:vector(packetBytes) ETV
attr interpolationmode none
attr source packetSentToUpper
attr title "packets passed to higher layer, vector(packetBytes)"
vector 415 Crocetta.gNodeB5.x2ppp[1].ppp rxPkOk:vector(packetBytes) ETV
attr interpolationmode none
attr source rxPkOk
attr title "packets received OK, vector(packetBytes)"
vector 416 Crocetta.gNodeB5.x2ppp[1].ppp passedUpPk:vector(packetBytes) ETV
attr interpolationmode none
attr source packetSentToUpper
attr title "packets passed to higher layer, vector(packetBytes)"
vector 417 Crocetta.gNodeB7.x2ppp[0].ppp rxPkOk:vector(packetBytes) ETV
attr interpolationmode none
attr source rxPkOk
attr title "packets received OK, vector(packetBytes)"
vector 418 Crocetta.gNodeB7.x2ppp[0].ppp passedUpPk:vector(packetBytes) ETV
attr interpolationmode none
attr source packetSentToUpper
attr title "packets passed to higher layer, vector(packetBytes)"
vector 419 Crocetta.gNodeB6.x2ppp[1].ppp rxPkOk:vector(packetBytes) ETV
attr interpolationmode none
attr source rxPkOk
attr title "packets received OK, vector(packetBytes)"
vector 420 Crocetta.gNodeB6.x2ppp[1].ppp passedUpPk:vector(packetBytes) ETV
attr interpolationmode none
attr source packetSentToUpper
attr title "packets passed to higher layer, vector(packetBytes)"
vector 421 Crocetta.gNodeB8.x2ppp[0].ppp rxPkOk:vector(packetBytes) ETV
attr interpolationmode none
attr source rxPkOk
attr title "packets received OK, vector(packetBytes)"
vector 422 Crocetta.gNodeB8.x2ppp[0].ppp passedUpPk:vector(packetBytes) ETV
attr interpolationmode none
attr source packetSentToUpper
attr title "packets passed to higher layer, vector(packetBytes)"
vector 423 Crocetta.gNodeB7.x2ppp[1].ppp rxPkOk:vector(packetBytes) ETV
attr interpolationmode none
attr source rxPkOk
attr title "packets received OK, vector(packetBytes)"
vector 424 Crocetta.gNodeB7.x2ppp[1].ppp passedUpPk:vector(packetBytes) ETV
attr interpolationmode none
attr source packetSentToUpper
attr title "packets passed to higher layer, vector(packetBytes)"
vector 425 Crocetta.gNodeB9.x2ppp[0].ppp rxPkOk:vector(packetBytes) ETV
attr interpolationmode none
attr source rxPkOk
attr title "packets received OK, vector(packetBytes)"
vector 426 Crocetta.gNodeB9.x2ppp[0].ppp passedUpPk:vector(packetBytes) ETV
attr interpolationmode none
attr source packetSentToUpper
attr title "packets passed to higher layer, vector(packetBytes)"
vector 427 Crocetta.gNodeB8.x2ppp[1].ppp rxPkOk:vector(packetBytes) ETV
attr interpolationmode none
attr source rxPkOk
attr title "packets received OK, vector(packetBytes)"
vector 428 Crocetta.gNodeB8.x2ppp[1].ppp passedUpPk:vector(packetBytes) ETV
attr interpolationmode none
attr source packetSentToUpper
attr title "packets passed to higher layer, vector(packetBytes)"
vector 429 Crocetta.gNodeB10.x2ppp[0].ppp rxPkOk:vector(packetBytes) ETV
attr interpolationmode none
attr source rxPkOk
attr title "packets received OK, vector(packetBytes)"
vector 430 Crocetta.gNodeB10.x2ppp[0].ppp passedUpPk:vector(packetBytes) ETV
attr interpolationmode none
attr source packetSentToUpper
attr title "packets passed to higher layer, vector(packetBytes)"
vector 431 Crocetta.gNodeB9.x2ppp[1].ppp rxPkOk:vector(packetBytes) ETV
attr interpolationmode none
attr source rxPkOk
attr title "packets received OK, vector(packetBytes)"
vector 432 Crocetta.gNodeB9.x2ppp[1].ppp passedUpPk:vector(packetBytes) ETV
attr interpolationmode none
attr source packetSentToUpper
attr title "packets passed to higher layer, vector(packetBytes)"
vector 433 Crocetta.gNodeB11.x2ppp[0].ppp rxPkOk:vector(packetBytes) ETV
attr interpolationmode none
attr source rxPkOk
attr title "packets received OK, vector(packetBytes)"
vector 434 Crocetta.gNodeB11.x2ppp[0].ppp passedUpPk:vector(packetBytes) ETV
attr interpolationmode none
attr source packetSentToUpper
attr title "packets passed to higher layer, vector(packetBytes)"
vector 435 Crocetta.gNodeB10.x2ppp[1].ppp rxPkOk:vector(packetBytes) ETV
attr interpolationmode none
attr source rxPkOk
attr title "packets received OK, vector(packetBytes)"
vector 436 Crocetta.gNodeB10.x2ppp[1].ppp passedUpPk:vector(packetBytes) ETV
attr interpolationmode none
attr source packetSentToUpper
attr title "packets passed to higher layer, vector(packetBytes)"
vector 437 Crocetta.gNodeB12.x2ppp[0].ppp rxPkOk:vector(packetBytes) ETV
attr interpolationmode none
attr source rxPkOk
attr title "packets received OK, vector(packetBytes)"
vector 438 Crocetta.gNodeB12.x2ppp[0].ppp passedUpPk:vector(packetBytes) ETV
attr interpolationmode none
attr source packetSentToUpper
attr title "packets passed to higher layer, vector(packetBytes)"
vector 439 Crocetta.gNodeB11.x2ppp[1].ppp rxPkOk:vector(packetBytes) ETV
attr interpolationmode none
attr source rxPkOk
attr title "packets received OK, vector(packetBytes)"
vector 440 Crocetta.gNodeB11.x2ppp[1].ppp passedUpPk:vector(packetBytes) ETV
attr interpolationmode none
attr source packetSentToUpper
attr title "packets passed to higher layer, vector(packetBytes)"
vector 441 Crocetta.gNodeB13.x2ppp[0].ppp rxPkOk:vector(packetBytes) ETV
attr interpolationmode none
attr source rxPkOk
attr title "packets received OK, vector(packetBytes)"
vector 442 Crocetta.gNodeB13.x2ppp[0].ppp passedUpPk:vector(packetBytes) ETV
attr interpolationmode none
attr source packetSentToUpper
attr title "packets passed to higher layer, vector(packetBytes)"
vector 443 Crocetta.gNodeB12.x2ppp[1].ppp rxPkOk:vector(packetBytes) ETV
attr interpolationmode none
attr source rxPkOk
attr title "packets received OK, vector(packetBytes)"
vector 444 Crocetta.gNodeB12.x2ppp[1].ppp passedUpPk:vector(packetBytes) ETV
attr interpolationmode none
attr source packetSentToUpper
attr title "packets passed to higher layer, vector(packetBytes)"
vector 445 Crocetta.gNodeB14.x2ppp[0].ppp rxPkOk:vector(packetBytes) ETV
attr interpolationmode none
attr source rxPkOk
attr title "packets received OK, vector(packetBytes)"
vector 446 Crocetta.gNodeB14.x2ppp[0].ppp passedUpPk:vector(packetBytes) ETV
attr interpolationmode none
attr source packetSentToUpper
attr title "packets passed to higher layer, vector(packetBytes)"
vector 447 Crocetta.gNodeB13.x2ppp[1].ppp rxPkOk:vector(packetBytes) ETV
attr interpolationmode none
attr source rxPkOk
attr title "packets received OK, vector(packetBytes)"
vector 448 Crocetta.gNodeB13.x2ppp[1].ppp passedUpPk:vector(packetBytes) ETV
attr interpolationmode none
attr source packetSentToUpper
attr title "packets passed to higher layer, vector(packetBytes)"
vector 449 Crocetta.gNodeB15.x2ppp[0].ppp rxPkOk:vector(packetBytes) ETV
attr interpolationmode none
attr source rxPkOk
attr title "packets received OK, vector(packetBytes)"
vector 450 Crocetta.gNodeB15.x2ppp[0].ppp passedUpPk:vector(packetBytes) ETV
attr interpolationmode none
attr source packetSentToUpper
attr title "packets passed to higher layer, vector(packetBytes)"
vector 451 Crocetta.gNodeB14.x2ppp[1].ppp rxPkOk:vector(packetBytes) ETV
attr interpolationmode none
attr source rxPkOk
attr title "packets received OK, vector(packetBytes)"
vector 452 Crocetta.gNodeB14.x2ppp[1].ppp passedUpPk:vector(packetBytes) ETV
attr interpolationmode none
[...]
2580	81537006 22 4062115 4062115 46.706 46.706 1 0 0 0 0
2584	81537028 26 4062110 4062110 46.706 46.706 1 0.004 0.004 0.004 1.6e-05
2585	81537054 22 4062115 4062115 46.706 46.706 1 0 0 0 0
2586	81537076 26 4062115 4062115 46.706 46.706 1 0.004 0.004 0.004 1.6e-05
2587	81537102 22 4062115 4062115 46.706 46.706 1 0 0 0 0
2588	81537124 22 4062351 4062351 46.707 46.707 1 0 0 0 0
2589	81537146 22 4062351 4062351 46.707 46.707 1 0 0 0 0
2590	81537168 22 4062351 4062351 46.707 46.707 1 1 1 1 1
2591	81537190 36 4062115 4062115 46.706 46.706 1 2232.2399691688 2232.2399691688 2232.2399691688 4982895.2799549
2592	81537226 22 4062115 4062115 46.706 46.706 1 0 0 0 0
2593	81537248 35 4062115 4062115 46.706 46.706 1 0.008293628004 0.008293628004 0.008293628004 6.8784265468733e-05
2594	81537283 42 4062226 4062226 46.7060003588 46.7060003588 1 10516.85000271 10516.85000271 10516.85000271 110604133.97949
2643	81537325 44 4062488 4062498 46.708 46.708 2 1 1 2 2
2644	81537369 44 4062110 4062110 46.706 46.706 2 1 1 2 2
2645	81537413 46 4062110 4062110 46.706 46.706 2 71 71 142 10082
2646	81537459 46 4062115 4062116 46.706 46.706 2 71 71 142 10082
2647	81537505 46 4062115 4062116 46.706 46.706 2 69 69 138 9522
2648	81537551 46 4062117 4062118 46.706 46.706 2 69 69 138 9522
2649	81537597 46 4062117 4062118 46.706 46.706 2 68 68 136 9248
2650	81537643 46 4062125 4062126 46.706 46.706 2 84 84 168 14112
2651	81537689 48 4062129 4062130 46.706 46.706 2 104 104 208 21632
2652	81537737 48 4062129 4062130 46.706 46.706 2 104 104 208 21632
2653	81537785 95 4062129 4062195 46.706 46.7060000888 4 0 1 2 2
2654	81537880 55 4062129 4062195 46.706 46.7060000888 2 104 104 208 21632
2655	81537935 58 4062129 4062195 46.706 46.7060000888 2 0 8.88e-08 8.88e-08 7.88544e-15
2656	81537993 55 4062129 4062195 46.706 46.7060000888 2 111 111 222 24642
2657	81538048 62 4062197 4062209 46.7060001388 46.7060002276 2 111 111 222 24642
2658	81538110 62 4062197 4062209 46.7060001388 46.7060002276 2 104 104 208 21632
2731	81538172 89 4062192 4062623 46.706 46.709 4 1 73 76 5332
2732	81538261 66 4062302 4062623 46.707 46.709 3 1 1 3 3
2733	81538327 46 4062302 4062563 46.707 46.709 2 71 71 142 10082
2734	81538373 46 4062305 4062566 46.707 46.709 2 71 71 142 10082
2735	81538419 46 4062305 4062566 46.707 46.709 2 69 69 138 9522
2736	81538465 46 4062306 4062567 46.707 46.709 2 69 69 138 9522
2737	81538511 46 4062306 4062567 46.707 46.709 2 68 68 136 9248
2738	81538557 46 4062310 4062571 46.707 46.709 2 84 84 168 14112
2739	81538603 48 4062312 4062573 46.707 46.709 2 104 104 208 21632
2740	81538651 48 4062312 4062573 46.707 46.709 2 104 104 208 21632
2741	81538699 88 4062312 4062573 46.707 46.709 4 0 1 2 2
2742	81538787 48 4062312 4062573 46.707 46.709 2 104 104 208 21632
2743	81538835 44 4062312 4062573 46.707 46.709 2 0 0 0 0
2744	81538879 48 4062312 4062573 46.707 46.709 2 111 111 222 24642
2745	81538927 31 4062361 4062361 46.7070001388 46.7070001388 1 111 111 111 12321
2746	81538958 31 4062361 4062361 46.7070001388 46.7070001388 1 104 104 104 10816
2758	81538989 35 4062175 4062175 46.706 46.706 1 25.64423142703 25.64423142703 25.64423142703 657.62660548305
2759	81539024 36 4062175 4062175 46.706 46.706 1 41.996779038314 41.996779038314 41.996779038314 1763.729449593
2787	81539060 23 4062603 4062603 46.709 46.709 1 73 73 73 5329
2788	81539083 36 4062489 4062489 46.708 46.708 1 24.526477602142 24.526477602142 24.526477602142 601.54810356838
2789	81539119 36 4062489 4062489 46.708 46.708 1 43.329555530079 43.329555530079 43.329555530079 1877.4503824342
2790	81539155 44 4062506 4062508 46.708 46.708 2 1 1 2 2
2794	81539199 23 4062604 4062604 46.709 46.709 1 13 13 13 169
2800	81539222 22 4062506 4062506 46.708 46.708 1 1 1 1 1
2801	81539244 22 4062506 4062506 46.708 46.708 1 1 1 1 1
2852	81539266 67 4062188 4062492 46.706 46.708 3 1 73 75 5331
2879	81539333 22 4062038 4062038 46.705 46.705 1 1 1 1 1
2889	81539355 22 4062038 4062038 46.705 46.705 1 0 0 0 0
2890	81539377 22 4062038 4062038 46.705 46.705 1 0 0 0 0
2891	81539399 22 4062038 4062038 46.705 46.705 1 1 1 1 1
2907	81539421 36 4062177 4062177 46.706 46.706 1 26.056962221304 26.056962221304 26.056962221304 678.96528020248
2908	81539457 36 4062177 4062177 46.706 46.706 1 41.443213944504 41.443213944504 41.443213944504 1717.53998205
2909	81539493 22 4062355 4062355 46.707 46.707 1 1 1 1 1
2911	81539515 22 4062139 4062139 46.706 46.706 1 0 0 0 0
2915	81539537 26 4062136 4062136 46.706 46.706 1 0.004 0.004 0.004 1.6e-05
2916	81539563 22 4062139 4062139 46.706 46.706 1 0 0 0 0
2917	81539585 26 4062139 4062139 46.706 46.706 1 0.004 0.004 0.004 1.6e-05
2918	81539611 22 4062139 4062139 46.706 46.706 1 0 0 0 0
2919	81539633 22 4062355 4062355 46.707 46.707 1 0 0 0 0
2920	81539655 22 4062355 4062355 46.707 46.707 1 0 0 0 0
2921	81539677 22 4062355 4062355 46.707 46.707 1 1 1 1 1
2922	81539699 36 4062139 4062139 46.706 46.706 1 1515.7367361795 1515.7367361795 1515.7367361795 2297457.8534041
2923	81539735 22 4062139 4062139 46.706 46.706 1 0 0 0 0
2924	81539757 35 4062139 4062139 46.706 46.706 1 0.008244502281 0.008244502281 0.008244502281 6.7971817861414e-05
2925	81539792 43 4062234 4062234 46.7060004188 46.7060004188 1 7132.2741620563 7132.2741620563 7132.2741620563 50869334.722737
2971	81539835 66 4062178 4062490 46.706 46.708 3 1 1 3 3
2981	81539901 36 4062491 4062491 46.708 46.708 1 29.453424950855 29.453424950855 29.453424950855 867.50424133566
2982	81539937 36 4062491 4062491 46.708 46.708 1 46.818582486473 46.818582486473 46.818582486473 2191.9796660426
3001	81539973 66 4062136 4062320 46.706 46.707 3 1 1 3 3
3002	81540039 23 4062136 4062136 46.706 46.706 1 71 71 71 5041
3003	81540062 23 4062139 4062139 46.706 46.706 1 71 71 71 5041
3004	81540085 23 4062139 4062139 46.706 46.706 1 69 69 69 4761
3005	81540108 23 4062140 4062140 46.706 46.706 1 69 69 69 4761
3006	81540131 23 4062140 4062140 46.706 46.706 1 68 68 68 4624
3007	81540154 23 4062144 4062144 46.706 46.706 1 84 84 84 7056
3008	81540177 24 4062146 4062146 46.706 46.706 1 104 104 104 10816
3009	81540201 24 4062146 4062146 46.706 46.706 1 104 104 104 10816
3010	81540225 44 4062146 4062146 46.706 46.706 2 0 1 1 1
3011	81540269 24 4062146 4062146 46.706 46.706 1 104 104 104 10816
3012	81540293 22 4062146 4062146 46.706 46.706 1 0 0 0 0
3013	81540315 24 4062146 4062146 46.706 46.706 1 111 111 111 12321
3014	81540339 31 4062198 4062198 46.7060001388 46.7060001388 1 111 111 111 12321
3015	81540370 31 4062198 4062198 46.7060001388 46.7060001388 1 104 104 104 10816
3056	81540401 36 4062179 4062179 46.706 46.706 1 24.955821594869 24.955821594869 24.955821594869 622.79303147495
3057	81540437 36 4062179 4062179 46.706 46.706 1 44.419580049226 44.419580049226 44.419580049226 1973.0990917496
3122	81540473 23 4062190 4062190 46.706 46.706 1 23 23 23 529
3131	81540496 23 4061970 4061970 46.705 46.705 1 71 71 71 5041
3132	81540519 23 4062016 4062016 46.705 46.705 1 73 73 73 5329
3133	81540542 36 4062493 4062493 46.708 46.708 1 45.806349668654 45.806349668654 45.806349668654 2098.221669967
3134	81540578 36 4062493 4062493 46.708 46.708 1 64.839731100112 64.839731100112 64.839731100112 4204.1907291348
3136	81540614 22 4061966 4061966 46.705 46.705 1 1 1 1 1
3137	81540636 44 4061968 4062566 46.705 46.709 2 0 0 0 0
3138	81540680 23 4061968 4061968 46.705 46.705 1 71 71 71 5041
3139	81540703 23 4062017 4062017 46.705 46.705 1 15 15 15 225
3140	81540726 36 4062191 4062191 46.706 46.706 1 49.207785723467 49.207785723467 49.207785723467 2421.4061758066
3141	81540762 26 4062563 4062563 46.709 46.709 1 0.004 0.004 0.004 1.6e-05
3142	81540788 22 4062566 4062566 46.709 46.709 1 0 0 0 0
3143	81540810 26 4062566 4062566 46.709 46.709 1 0.004 0.004 0.004 1.6e-05
3144	81540836 36 4062566 4062566 46.709 46.709 1 1270.4189770708 1270.4189770708 1270.4189770708 1613964.3773016
3145	81540872 22 4062566 4062566 46.709 46.709 1 0 0 0 0
3146	81540894 35 4062566 4062566 46.709 46.709 1 0.008757310862 0.008757310862 0.008757310862 7.6690493533703e-05
3147	81540929 22 4062566 4062566 46.709 46.709 1 0 0 0 0
3153	81540951 22 4062582 4062582 46.709 46.709 1 1 1 1 1
3154	81540973 23 4062582 4062582 46.709 46.709 1 21 21 21 441
3155	81540996 23 4062585 4062585 46.709 46.709 1 21 21 21 441
3156	81541019 23 4062585 4062585 46.709 46.709 1 69 69 69 4761
3157	81541042 23 4062586 4062586 46.709 46.709 1 69 69 69 4761
3158	81541065 23 4062586 4062586 46.709 46.709 1 68 68 68 4624
3159	81541088 23 4062590 4062590 46.709 46.709 1 84 84 84 7056
3160	81541111 24 4062592 4062592 46.709 46.709 1 104 104 104 10816
3161	81541135 24 4062592 4062592 46.709 46.709 1 104 104 104 10816
3162	81541159 44 4062592 4062592 46.709 46.709 2 0 1 1 1
3163	81541203 24 4062592 4062592 46.709 46.709 1 104 104 104 10816
3164	81541227 22 4062592 4062592 46.709 46.709 1 0 0 0 0
3165	81541249 24 4062592 4062592 46.709 46.709 1 111 111 111 12321
3181	81541273 22 4062353 4062353 46.707 46.707 1 1 1 1 1
3183	81541295 22 4062116 4062116 46.706 46.706 1 0 0 0 0
3187	81541317 22 4062353 4062353 46.707 46.707 1 0 0 0 0
3188	81541339 22 4062353 4062353 46.707 46.707 1 0 0 0 0
3189	81541361 26 4062110 4062110 46.706 46.706 1 0.004 0.004 0.004 1.6e-05
3190	81541387 22 4062116 4062116 46.706 46.706 1 0 0 0 0
3191	81541409 26 4062116 4062116 46.706 46.706 1 0.004 0.004 0.004 1.6e-05
3192	81541435 22 4062116 4062116 46.706 46.706 1 0 0 0 0
3194	81541457 22 4062353 4062353 46.707 46.707 1 1 1 1 1
3197	81541479 22 4062116 4062116 46.706 46.706 1 0 0 0 0
3198	81541501 36 4062116 4062116 46.706 46.706 1 697.29799169272 697.29799169272 697.29799169272 486224.4892187
3199	81541537 35 4062116 4062116 46.706 46.706 1 0.008907893839 0.008907893839 0.008907893839 7.9350572646894e-05
3200	81541572 43 4062239 4062239 46.7060004788 46.7060004788 1 3247.5484615483 3247.5484615483 3247.5484615483 10546571.010105
3245	81541615 22 4062180 4062180 46.706 46.706 1 1 1 1 1
3270	81541637 36 4062181 4062181 46.706 46.706 1 26.168056986119 26.168056986119 26.168056986119 684.76720642877
3271	81541673 36 4062181 4062181 46.706 46.706 1 47.639655562198 47.639655562198 47.639655562198 2269.5367820849
3293	81541709 45 4062388 4062388 46.707535960258 46.707535960258 1 420.48889105842 420.48889105842 420.48889105842 176810.90750354
3294	81541754 32 4062389 4062389 46.707535960258 46.707535960258 1 48 48 48 2304
3295	81541786 32 4062392 4062392 46.707535960258 46.707535960258 1 68 68 68 4624
3296	81541818 32 4062392 4062392 46.707535960258 46.707535960258 1 69 69 69 4761
3297	81541850 32 4062393 4062393 46.707535960258 46.707535960258 1 69 69 69 4761
3298	81541882 32 4062395 4062395 46.707535960258 46.707535960258 1 71 71 71 5041
3300	81541914 22 4062418 4062418 46.708 46.708 1 1 1 1 1
3301	81541936 36 4062495 4062495 46.708 46.708 1 27.009739520845 27.009739520845 27.009739520845 729.52602898387
3302	81541972 36 4062495 4062495 46.708 46.708 1 41.058710217089 41.058710217089 41.058710217089 1685.8176846909
3477	81542008 23 4061958 4061958 46.705 46.705 1 21 21 21 441
3478	81542031 23 4062014 4062014 46.705 46.705 1 23 23 23 529
3482	81542054 22 4061954 4061954 46.705 46.705 1 1 1 1 1
3483	81542076 44 4061956 4062585 46.705 46.709 2 0 0 0 0
3484	81542120 23 4061956 4061956 46.705 46.705 1 21 21 21 441
3485	81542143 22 4062015 4062015 46.705 46.705 1 7 7 7 49
3486	81542165 36 4062189 4062189 46.706 46.706 1 22.784305673426 22.784305673426 22.784305673426 519.12458502013
3487	81542201 26 4062582 4062582 46.709 46.709 1 0.004 0.004 0.004 1.6e-05
3488	81542227 22 4062585 4062585 46.709 46.709 1 0 0 0 0
3489	81542249 26 4062585 4062585 46.709 46.709 1 0.004 0.004 0.004 1.6e-05
3490	81542275 22 4062585 4062585 46.709 46.709 1 0 0 0 0
3494	81542297 36 4062585 4062585 46.709 46.709 1 199.42623477274 199.42623477274 199.42623477274 39770.823115633
3495	81542333 22 4062585 4062585 46.709 46.709 1 0 0 0 0
3496	81542355 35 4062585 4062585 46.709 46.709 1 0.014863224636 0.014863224636 0.014863224636 0.0002209154465802
3511	81542390 36 4062183 4062183 46.706 46.706 1 46.981268394831 46.981268394831 46.981268394831 2207.2395799872
3512	81542426 36 4062183 4062183 46.706 46.706 1 64.783886690223 64.783886690223 64.783886690223 4196.9519746917
3513	81542462 22 4062502 4062502 46.708 46.708 1 1 1 1 1
3515	81542484 22 4062294 4062294 46.707 46.707 1 0 0 0 0
3519	81542506 26 4062291 4062291 46.707 46.707 1 0.004 0.004 0.004 1.6e-05
3520	81542532 22 4062294 4062294 46.707 46.707 1 0 0 0 0
3521	81542554 26 4062294 4062294 46.707 46.707 1 0.004 0.004 0.004 1.6e-05
3522	81542580 36 4062294 4062294 46.707 46.707 1 645.57775065836 645.57775065836 645.57775065836 416770.63214511
3523	81542616 22 4062294 4062294 46.707 46.707 1 0 0 0 0
3524	81542638 35 4062294 4062294 46.707 46.707 1 0.008821171591 0.008821171591 0.008821171591 7.7813068237865e-05
3525	81542673 22 4062294 4062294 46.707 46.707 1 0 0 0 0
3526	81542695 43 4062382 4062382 46.7070003588 46.7070003588 1 2993.9837481696 2993.9837481696 2993.9837481696 8963938.6843038
3527	81542738 22 4062502 4062502 46.708 46.708 1 0 0 0 0
3528	81542760 22 4062502 4062502 46.708 46.708 1 0 0 0 0
3529	81542782 22 4062502 4062502 46.708 46.708 1 1 1 1 1
3540	81542804 36 4062497 4062497 46.708 46.708 1 26.575355976786 26.575355976786 26.575355976786 706.24954529292
3541	81542840 36 4062497 4062497 46.708 46.708 1 47.459606483938 47.459606483938 47.459606483938 2252.4142476102
3563	81542876 44 4062043 4062043 46.705756052859 46.705756052859 1 322.0159841322 322.0159841322 322.0159841322 103694.29403663
3564	81542920 32 4062044 4062044 46.705756052859 46.705756052859 1 48 48 48 2304
3565	81542952 32 4062047 4062047 46.705756052859 46.705756052859 1 68 68 68 4624
3566	81542984 32 4062047 4062047 46.705756052859 46.705756052859 1 69 69 69 4761
3567	81543016 32 4062048 4062048 46.705756052859 46.705756052859 1 69 69 69 4761
3568	81543048 32 4062050 4062050 46.705756052859 46.705756052859 1 71 71 71 5041
3569	81543080 22 4062069 4062069 46.706 46.706 1 1 1 1 1
3570	81543102 36 4062185 4062185 46.706 46.706 1 53.571276413407 53.571276413407 53.571276413407 2869.8816565616
3571	81543138 35 4062185 4062185 46.706 46.706 1 79.29151568409 79.29151568409 79.29151568409 6287.1444594803
3572	81543173 44 4062510 4062630 46.708 46.709 2 1 1 2 2
3635	81543217 44 4062186 4062348 46.706 46.707 2 1 1 2 2
3636	81543261 44 4062348 4062464 46.707 46.708 2 1 1 2 2
3662	81543305 22 4062504 4062504 46.708 46.708 1 1 1 1 1
3664	81543327 22 4062305 4062305 46.707 46.707 1 0 0 0 0
3668	81543349 26 4062302 4062302 46.707 46.707 1 0.004 0.004 0.004 1.6e-05
3669	81543375 22 4062305 4062305 46.707 46.707 1 0 0 0 0
3670	81543397 26 4062305 4062305 46.707 46.707 1 0.004 0.004 0.004 1.6e-05
3671	81543423 36 4062305 4062305 46.707 46.707 1 234.88984520522 234.88984520522 234.88984520522 55173.23938053
3672	81543459 22 4062305 4062305 46.707 46.707 1 0 0 0 0
3673	81543481 35 4062305 4062305 46.707 46.707 1 0.008511722756 0.008511722756 0.008511722756 7.2449424275008e-05
3674	81543516 22 4062305 4062305 46.707 46.707 1 0 0 0 0
3675	81543538 43 4062387 4062387 46.7070004188 46.7070004188 1 1342.8393910467 1342.8393910467 1342.8393910467 1803217.6301467
3676	81543581 22 4062504 4062504 46.708 46.708 1 0 0 0 0
3677	81543603 22 4062504 4062504 46.708 46.708 1 0 0 0 0
3678	81543625 22 4062504 4062504 46.708 46.708 1 1 1 1 1
3688	81543647 23 4062065 4062065 46.706 46.706 1 71 71 71 5041
3689	81543670 23 4062154 4062154 46.706 46.706 1 73 73 73 5329
3690	81543693 36 4062187 4062187 46.706 46.706 1 27.884304945688 27.884304945688 27.884304945688 777.53446230411
3691	81543729 36 4062187 4062187 46.706 46.706 1 47.208065942251 47.208065942251 47.208065942251 2228.6014900079
3692	81543765 22 4062040 4062040 46.705 46.705 1 1 1 1 1
3693	81543787 22 4062061 4062061 46.706 46.706 1 1 1 1 1
3694	81543809 22 4062063 4062063 46.706 46.706 1 0 0 0 0
3695	81543831 23 4062063 4062063 46.706 46.706 1 71 71 71 5041
3696	81543854 23 4062155 4062155 46.706 46.706 1 13 13 13 169
3697	81543877 36 4062356 4062356 46.707 46.707 1 33.112285671622 33.112285671622 33.112285671622 1096.4234623991
3719	81543913 39 4062499 4062499 46.708 46.708 1 -0.076440406163243 -0.076440406163243 -0.076440406163243 0.0058431356944015
3720	81543952 36 4062499 4062499 46.708 46.708 1 17.219456459779 17.219456459779 17.219456459779 296.50968077023
3721	81543988 44 4062626 4062628 46.709 46.709 2 1 1 2 2
3726	81544032 35 4062041 4062041 46.705 46.705 1 6.905120701311 6.905120701311 6.905120701311 47.680691899674
3727	81544067 26 4062448 4062448 46.708 46.708 1 0.004 0.004 0.004 1.6e-05
3728	81544093 22 4062452 4062452 46.708 46.708 1 0 0 0 0
3729	81544115 26 4062452 4062452 46.708 46.708 1 0.004 0.004 0.004 1.6e-05
3730	81544141 22 4062452 4062452 46.708 46.708 1 0 0 0 0
3731	81544163 22 4062626 4062626 46.709 46.709 1 0 0 0 0
3732	81544185 22 4062626 4062626 46.709 46.709 1 0 0 0 0
3733	81544207 22 4062626 4062626 46.709 46.709 1 1 1 1 1
vector 3741 Crocetta.server.app[21] voIPFrameDelay:vector ETV
attr source voIPFrameDelay
attr title "VoIP Frame Delay, vector"
attr unit s
2595	81544368 5544 4062630 4062630 46.709000068456 46.709000068456 126 0.008670417687 0.020670417687 1.212473288562 0.012345092731248
2596	81549912 748 4062630 4062630 46.709000068456 46.709000068456 17 0.008293986804 0.008293986804 0.140997775668 0.0011694336907837
2597	81550660 968 4062630 4062630 46.709000068456 46.709000068456 22 0.008867600257 0.008867660257 0.195087925654 0.0017299681243824
2747	81551628 4400 4062630 4062630 46.709000068456 46.709000068456 100 0.008185947843 0.014185947843 0.8305947843 0.0069694369570636
2777	81556028 4268 4062630 4062630 46.709000068456 46.709000068456 97 0.008828520987 0.008828520987 0.856366535739 0.0075604499333362
2897	81560296 968 4062630 4062630 46.709000068456 46.709000068456 22 0.008762283887 0.008762343887 0.192770665514 0.001689114976504
2926	81561264 2772 4062630 4062630 46.709000068456 46.709000068456 63 0.008244861081 0.014244921081 0.525427568103 0.0044175580769187
3017	81564036 2244 4062630 4062630 46.709000068456 46.709000068456 51 0.008273587266 0.008273587266 0.421952950566 0.003491064558654
3075	81566280 1540 4062630 4062630 46.709000068456 46.709000068456 35 0.008217559694 0.008217559694 0.28761458929 0.0023634900563559
3077	81567820 2464 4062630 4062630 46.709000068456 46.709000068456 56 0.008452099364 0.008452099364 0.473317564384 0.0040005270849
3168	81570284 7181 4062630 4062630 46.709000068456 46.709000068456 167 0.00833498217 0.01433504217 1.55994928239 0.015410500651957
3299	81577465 1276 4062630 4062630 46.709000068456 46.709000068456 29 0.008908372639 0.014908312639 0.372340586531 0.0050164567579635
3320	81578741 352 4062630 4062630 46.709000068456 46.709000068456 8 0.008464398542 0.008464398542 0.067715188336 0.00057316834142249
3500	81579093 11572 4062630 4062630 46.709000068456 46.709000068456 263 0.008757669662 0.008757729662 2.303267181106 0.020171253640916
3501	81590665 9636 4062630 4062630 46.709000068456 46.709000068456 219 0.008863583436 0.056863643436 3.117144752484 0.048621075333503
3530	81600301 176 4062630 4062630 46.709000068456 46.709000068456 4 0.008983875752 0.008983875752 0.035935503008 0.00032284009410949
3559	81600477 352 4062630 4062630 46.709000068456 46.709000068456 8 0.008821530391 0.008821530391 0.070572243128 0.00062255518751469
3560	81600829 2024 4062630 4062630 46.709000068456 46.709000068456 46 0.008915809174 0.008915897974 0.410128198804 0.0036566334664619
3679	81602853 1496 4062630 4062630 46.709000068456 46.709000068456 34 0.008512081556 0.008512201556 0.289411372904 0.0024634983166849
3680	81604349 7436 4062630 4062630 46.709000068456 46.709000068456 169 0.008244305941 0.014244305941 1.399299404029 0.011621814684918
3740	81611785 572 4062630 4062630 46.709000068456 46.709000068456 13 0.008357072377 0.008357072377 0.108641940901 0.00090792856328741
3741	81612357 1260 4062630 4062630 46.709000068456 46.709000068456 30 0.0140003588 0.0200004476 0.4450111192 0.0067253335441486

