file 18719457 1643964923                                        
version 3
run VoIP-UL-0-20220204-09:54:43-6994
attr configname VoIP-UL
attr datetime 20220204-09:54:43
attr datetimef 20220204-095443
attr experiment VoIP-UL
attr inifile omnetpp.ini
attr iterationvars ""
attr iterationvarsd ""
attr iterationvarsf ""
attr measurement ""
attr network mapcrocetta.utils.Crocetta
attr processid 6994
attr repetition 0
attr replication #0
attr resultdir results
attr runnumber 0
attr seedset 0
config image-path ../../../inet/images:../../../simu5g/images:../../../veins/subprojects/veins_inet/images:../../../veins/images
config *.server.numApps 100
config *.server.app[*].typename VoIPReceiver
config *.server.app[*].localPort "3000 + ancestorIndex(0)"
config *.car[*].numApps 1
config *.car[*].app[0].typename VoIPSender
config *.car[*].app[0].destAddress "\"server\""
config *.car[*].app[0].destPort "3000 + ancestorIndex(1)"
config cmdenv-express-mode true
config cmdenv-autoflush true
config cmdenv-status-frequency 1s
config **.cmdenv-log-level info
config image-path ../../images
config network mapcrocetta.utils.Crocetta
config debug-on-errors false
config print-undisposed false
config sim-time-limit 3600s
config **.sctp.**.scalar-recording true
config **.sctp.**.vector-recording true
config **.routingRecorder.enabled false
config *.playgroundSizeX 5000m
config *.playgroundSizeY 5000m
config *.playgroundSizeZ 50m
config *.veinsManager.host "\"localhost\""
config *.veinsManager.moduleType "\"simu5g.nodes.cars.NRCar\""
config *.veinsManager.moduleName "\"car\""
config *.veinsManager.launchConfig "xmldoc(\"map.launchd.xml\")"
config *.veinsManager.updateInterval 0.1s
config *.car[*].mobilityType "\"VeinsInetMobility\""
config **.numBands 25
config **.ueTxPower 26
config **.eNodeBTxPower 46
config *.car[*].cellularNic.nrPhy.dynamicCellAssociation true
config *.car[*].masterId 0
config *.car[*].macCellId 0
config *.car[*].nrMasterId 1
config *.car[*].nrMacCellId 1
config **.gNodeB1.macCellId 1
config **.gNodeB1.macNodeId 1
config **.gNodeB2.macCellId 2
config **.gNodeB2.macNodeId 2
config **.gNodeB3.macCellId 3
config **.gNodeB3.macNodeId 3
config **.gNodeB4.macCellId 4
config **.gNodeB4.macNodeId 4
config **.gNodeB5.macCellId 5
config **.gNodeB5.macNodeId 5
config **.gNodeB6.macCellId 6
config **.gNodeB6.macNodeId 6
config **.gNodeB7.macCellId 7
config **.gNodeB7.macNodeId 7
config **.gNodeB8.macCellId 8
config **.gNodeB8.macNodeId 8
config **.gNodeB9.macCellId 9
config **.gNodeB9.macNodeId 9
config **.gNodeB10.macCellId 10
config **.gNodeB10.macNodeId 10
config **.gNodeB11.macCellId 11
config **.gNodeB11.macNodeId 11
config **.gNodeB12.macCellId 12
config **.gNodeB12.macNodeId 12
config **.gNodeB13.macCellId 13
config **.gNodeB13.macNodeId 13
config **.gNodeB14.macCellId 14
config **.gNodeB14.macNodeId 14
config **.gNodeB15.macCellId 15
config **.gNodeB15.macNodeId 15
config **.gNodeB16.macCellId 16
config **.gNodeB16.macNodeId 16
config **.gNodeB17.macCellId 16
config **.gNodeB17.macNodeId 16
config *.car[*].cellularNic.nrPhy.enableHandover true
config *.gNodeB*.cellularNic.phy.enableHandover true
config *.gNodeB*.cellularNic.phy.handoverLatency 10ms
config *.gNodeB*.cellInfo.broadcastMessageInterval 1s
config *.gNodeB1.numX2Apps 2
config *.gNodeB2.numX2Apps 2
config *.gNodeB3.numX2Apps 2
config *.gNodeB4.numX2Apps 2
config *.gNodeB5.numX2Apps 2
config *.gNodeB6.numX2Apps 2
config *.gNodeB7.numX2Apps 2
config *.gNodeB8.numX2Apps 2
config *.gNodeB9.numX2Apps 2
config *.gNodeB10.numX2Apps 2
config *.gNodeB11.numX2Apps 2
config *.gNodeB12.numX2Apps 2
config *.gNodeB13.numX2Apps 2
config *.gNodeB14.numX2Apps 2
config *.gNodeB15.numX2Apps 2
config *.gNodeB16.numX2Apps 2
config *.gNodeB17.numX2Apps 2
config *.gNodeB*.x2App[*].server.localPort "5000 + ancestorIndex(1)"
config *.gNodeB1.x2App[0].client.connectAddress "\"gNodeB2%x2ppp0\""
config *.gNodeB1.x2App[1].client.connectAddress "\"gNodeB17%x2ppp0\""
config *.gNodeB2.x2App[0].client.connectAddress "\"gNodeB1%x2ppp0\""
config *.gNodeB2.x2App[1].client.connectAddress "\"gNodeB3%x2ppp0\""
config *.gNodeB3.x2App[0].client.connectAddress "\"gNodeB2%x2ppp0\""
config *.gNodeB3.x2App[1].client.connectAddress "\"gNodeB4%x2ppp0\""
config *.gNodeB4.x2App[0].client.connectAddress "\"gNodeB3%x2ppp0\""
config *.gNodeB4.x2App[1].client.connectAddress "\"gNodeB5%x2ppp0\""
config *.gNodeB5.x2App[0].client.connectAddress "\"gNodeB4%x2ppp0\""
config *.gNodeB5.x2App[1].client.connectAddress "\"gNodeB6%x2ppp0\""
config *.gNodeB6.x2App[0].client.connectAddress "\"gNodeB5%x2ppp0\""
config *.gNodeB6.x2App[1].client.connectAddress "\"gNodeB7%x2ppp0\""
config *.gNodeB7.x2App[0].client.connectAddress "\"gNodeB6%x2ppp0\""
config *.gNodeB7.x2App[1].client.connectAddress "\"gNodeB8%x2ppp0\""
config *.gNodeB8.x2App[0].client.connectAddress "\"gNodeB7%x2ppp0\""
config *.gNodeB8.x2App[1].client.connectAddress "\"gNodeB9%x2ppp0\""
config *.gNodeB9.x2App[0].client.connectAddress "\"gNodeB8%x2ppp0\""
config *.gNodeB9.x2App[1].client.connectAddress "\"gNodeB10%x2ppp0\""
config *.gNodeB10.x2App[0].client.connectAddress "\"gNodeB9%x2ppp0\""
config *.gNodeB10.x2App[1].client.connectAddress "\"gNodeB11%x2ppp0\""
config *.gNodeB11.x2App[0].client.connectAddress "\"gNodeB10%x2ppp0\""
config *.gNodeB11.x2App[1].client.connectAddress "\"gNodeB12%x2ppp0\""
config *.gNodeB12.x2App[0].client.connectAddress "\"gNodeB11%x2ppp0\""
config *.gNodeB12.x2App[1].client.connectAddress "\"gNodeB13%x2ppp0\""
config *.gNodeB13.x2App[0].client.connectAddress "\"gNodeB12%x2ppp0\""
config *.gNodeB13.x2App[1].client.connectAddress "\"gNodeB14%x2ppp0\""
config *.gNodeB14.x2App[0].client.connectAddress "\"gNodeB13%x2ppp0\""
config *.gNodeB14.x2App[1].client.connectAddress "\"gNodeB15%x2ppp0\""
config *.gNodeB15.x2App[0].client.connectAddress "\"gNodeB14%x2ppp0\""
config *.gNodeB15.x2App[1].client.connectAddress "\"gNodeB16%x2ppp0\""
config *.gNodeB16.x2App[0].client.connectAddress "\"gNodeB15%x2ppp0\""
config *.gNodeB16.x2App[1].client.connectAddress "\"gNodeB17%x2ppp0\""
config *.gNodeB17.x2App[0].client.connectAddress "\"gNodeB16%x2ppp0\""
config *.gNodeB17.x2App[1].client.connectAddress "\"gNodeB1%x2ppp0\""
config **.sctp.nagleEnabled false
config **.sctp.enableHeartbeats false

vector 0 Crocetta.server.ppp[0].ppp transmissionState:vector ETV
attr interpolationmode sample-hold
attr source transmissionStateChanged
attr title "tx state, vector"
vector 1 Crocetta.router.ppp[0].ppp transmissionState:vector ETV
attr interpolationmode sample-hold
attr source transmissionStateChanged
attr title "tx state, vector"
vector 2 Crocetta.router.ppp[1].ppp transmissionState:vector ETV
attr interpolationmode sample-hold
attr source transmissionStateChanged
attr title "tx state, vector"
vector 3 Crocetta.upf.ppp[0].ppp transmissionState:vector ETV
attr interpolationmode sample-hold
attr source transmissionStateChanged
attr title "tx state, vector"
vector 4 Crocetta.upf.ppp[1].ppp transmissionState:vector ETV
attr interpolationmode sample-hold
attr source transmissionStateChanged
attr title "tx state, vector"
vector 5 Crocetta.upf.ppp[2].ppp transmissionState:vector ETV
attr interpolationmode sample-hold
attr source transmissionStateChanged
attr title "tx state, vector"
vector 6 Crocetta.upf.ppp[3].ppp transmissionState:vector ETV
attr interpolationmode sample-hold
attr source transmissionStateChanged
attr title "tx state, vector"
vector 7 Crocetta.upf.ppp[4].ppp transmissionState:vector ETV
attr interpolationmode sample-hold
attr source transmissionStateChanged
attr title "tx state, vector"
vector 8 Crocetta.upf.ppp[5].ppp transmissionState:vector ETV
attr interpolationmode sample-hold
attr source transmissionStateChanged
attr title "tx state, vector"
vector 9 Crocetta.upf.ppp[6].ppp transmissionState:vector ETV
attr interpolationmode sample-hold
attr source transmissionStateChanged
attr title "tx state, vector"
vector 10 Crocetta.upf.ppp[7].ppp transmissionState:vector ETV
attr interpolationmode sample-hold
attr source transmissionStateChanged
attr title "tx state, vector"
vector 11 Crocetta.upf.ppp[8].ppp transmissionState:vector ETV
attr interpolationmode sample-hold
attr source transmissionStateChanged
attr title "tx state, vector"
vector 12 Crocetta.upf.ppp[9].ppp transmissionState:vector ETV
attr interpolationmode sample-hold
attr source transmissionStateChanged
attr title "tx state, vector"
vector 13 Crocetta.upf.ppp[10].ppp transmissionState:vector ETV
attr interpolationmode sample-hold
attr source transmissionStateChanged
attr title "tx state, vector"
vector 14 Crocetta.upf.ppp[11].ppp transmissionState:vector ETV
attr interpolationmode sample-hold
attr source transmissionStateChanged
attr title "tx state, vector"
vector 15 Crocetta.upf.ppp[12].ppp transmissionState:vector ETV
attr interpolationmode sample-hold
attr source transmissionStateChanged
attr title "tx state, vector"
vector 16 Crocetta.upf.ppp[13].ppp transmissionState:vector ETV
attr interpolationmode sample-hold
attr source transmissionStateChanged
attr title "tx state, vector"
vector 17 Crocetta.upf.ppp[14].ppp transmissionState:vector ETV
attr interpolationmode sample-hold
attr source transmissionStateChanged
attr title "tx state, vector"
vector 18 Crocetta.upf.ppp[15].ppp transmissionState:vector ETV
attr interpolationmode sample-hold
attr source transmissionStateChanged
attr title "tx state, vector"
vector 19 Crocetta.upf.ppp[16].ppp transmissionState:vector ETV
attr interpolationmode sample-hold
attr source transmissionStateChanged
attr title "tx state, vector"
vector 20 Crocetta.upf.pppIf.ppp transmissionState:vector ETV
attr interpolationmode sample-hold
attr source transmissionStateChanged
attr title "tx state, vector"
vector 21 Crocetta.gNodeB1.pppIf.ppp transmissionState:vector ETV
attr interpolationmode sample-hold
attr source transmissionStateChanged
attr title "tx state, vector"
vector 22 Crocetta.gNodeB1.x2ppp[0].ppp transmissionState:vector ETV
attr interpolationmode sample-hold
attr source transmissionStateChanged
attr title "tx state, vector"
vector 23 Crocetta.gNodeB1.x2ppp[1].ppp transmissionState:vector ETV
attr interpolationmode sample-hold
attr source transmissionStateChanged
attr title "tx state, vector"
vector 24 Crocetta.gNodeB1.pppMEHostIf.ppp transmissionState:vector ETV
attr interpolationmode sample-hold
attr source transmissionStateChanged
attr title "tx state, vector"
vector 25 Crocetta.gNodeB2.pppIf.ppp transmissionState:vector ETV
attr interpolationmode sample-hold
attr source transmissionStateChanged
attr title "tx state, vector"
vector 26 Crocetta.gNodeB2.x2ppp[0].ppp transmissionState:vector ETV
attr interpolationmode sample-hold
attr source transmissionStateChanged
attr title "tx state, vector"
vector 27 Crocetta.gNodeB2.x2ppp[1].ppp transmissionState:vector ETV
attr interpolationmode sample-hold
attr source transmissionStateChanged
attr title "tx state, vector"
vector 28 Crocetta.gNodeB2.pppMEHostIf.ppp transmissionState:vector ETV
attr interpolationmode sample-hold
attr source transmissionStateChanged
attr title "tx state, vector"
vector 29 Crocetta.gNodeB3.pppIf.ppp transmissionState:vector ETV
attr interpolationmode sample-hold
attr source transmissionStateChanged
attr title "tx state, vector"
vector 30 Crocetta.gNodeB3.x2ppp[0].ppp transmissionState:vector ETV
attr interpolationmode sample-hold
attr source transmissionStateChanged
attr title "tx state, vector"
vector 31 Crocetta.gNodeB3.x2ppp[1].ppp transmissionState:vector ETV
attr interpolationmode sample-hold
attr source transmissionStateChanged
attr title "tx state, vector"
vector 32 Crocetta.gNodeB3.pppMEHostIf.ppp transmissionState:vector ETV
attr interpolationmode sample-hold
attr source transmissionStateChanged
attr title "tx state, vector"
vector 33 Crocetta.gNodeB4.pppIf.ppp transmissionState:vector ETV
attr interpolationmode sample-hold
attr source transmissionStateChanged
attr title "tx state, vector"
vector 34 Crocetta.gNodeB4.x2ppp[0].ppp transmissionState:vector ETV
attr interpolationmode sample-hold
attr source transmissionStateChanged
attr title "tx state, vector"
vector 35 Crocetta.gNodeB4.x2ppp[1].ppp transmissionState:vector ETV
attr interpolationmode sample-hold
attr source transmissionStateChanged
attr title "tx state, vector"
vector 36 Crocetta.gNodeB4.pppMEHostIf.ppp transmissionState:vector ETV
attr interpolationmode sample-hold
attr source transmissionStateChanged
attr title "tx state, vector"
vector 37 Crocetta.gNodeB5.pppIf.ppp transmissionState:vector ETV
attr interpolationmode sample-hold
attr source transmissionStateChanged
attr title "tx state, vector"
vector 38 Crocetta.gNodeB5.x2ppp[0].ppp transmissionState:vector ETV
attr interpolationmode sample-hold
attr source transmissionStateChanged
attr title "tx state, vector"
vector 39 Crocetta.gNodeB5.x2ppp[1].ppp transmissionState:vector ETV
attr interpolationmode sample-hold
attr source transmissionStateChanged
attr title "tx state, vector"
vector 40 Crocetta.gNodeB5.pppMEHostIf.ppp transmissionState:vector ETV
attr interpolationmode sample-hold
attr source transmissionStateChanged
attr title "tx state, vector"
vector 41 Crocetta.gNodeB6.pppIf.ppp transmissionState:vector ETV
attr interpolationmode sample-hold
attr source transmissionStateChanged
attr title "tx state, vector"
vector 42 Crocetta.gNodeB6.x2ppp[0].ppp transmissionState:vector ETV
attr interpolationmode sample-hold
attr source transmissionStateChanged
attr title "tx state, vector"
vector 43 Crocetta.gNodeB6.x2ppp[1].ppp transmissionState:vector ETV
attr interpolationmode sample-hold
attr source transmissionStateChanged
attr title "tx state, vector"
vector 44 Crocetta.gNodeB6.pppMEHostIf.ppp transmissionState:vector ETV
attr interpolationmode sample-hold
attr source transmissionStateChanged
attr title "tx state, vector"
vector 45 Crocetta.gNodeB7.pppIf.ppp transmissionState:vector ETV
attr interpolationmode sample-hold
attr source transmissionStateChanged
attr title "tx state, vector"
vector 46 Crocetta.gNodeB7.x2ppp[0].ppp transmissionState:vector ETV
attr interpolationmode sample-hold
attr source transmissionStateChanged
attr title "tx state, vector"
vector 47 Crocetta.gNodeB7.x2ppp[1].ppp transmissionState:vector ETV
attr interpolationmode sample-hold
attr source transmissionStateChanged
attr title "tx state, vector"
vector 48 Crocetta.gNodeB7.pppMEHostIf.ppp transmissionState:vector ETV
attr interpolationmode sample-hold
attr source transmissionStateChanged
attr title "tx state, vector"
vector 49 Crocetta.gNodeB8.pppIf.ppp transmissionState:vector ETV
attr interpolationmode sample-hold
attr source transmissionStateChanged
attr title "tx state, vector"
vector 50 Crocetta.gNodeB8.x2ppp[0].ppp transmissionState:vector ETV
attr interpolationmode sample-hold
attr source transmissionStateChanged
attr title "tx state, vector"
vector 51 Crocetta.gNodeB8.x2ppp[1].ppp transmissionState:vector ETV
attr interpolationmode sample-hold
attr source transmissionStateChanged
attr title "tx state, vector"
vector 52 Crocetta.gNodeB8.pppMEHostIf.ppp transmissionState:vector ETV
attr interpolationmode sample-hold
attr source transmissionStateChanged
attr title "tx state, vector"
vector 53 Crocetta.gNodeB9.pppIf.ppp transmissionState:vector ETV
attr interpolationmode sample-hold
attr source transmissionStateChanged
attr title "tx state, vector"
vector 54 Crocetta.gNodeB9.x2ppp[0].ppp transmissionState:vector ETV
attr interpolationmode sample-hold
attr source transmissionStateChanged
attr title "tx state, vector"
vector 55 Crocetta.gNodeB9.x2ppp[1].ppp transmissionState:vector ETV
attr interpolationmode sample-hold
attr source transmissionStateChanged
attr title "tx state, vector"
vector 56 Crocetta.gNodeB9.pppMEHostIf.ppp transmissionState:vector ETV
attr interpolationmode sample-hold
attr source transmissionStateChanged
attr title "tx state, vector"
vector 57 Crocetta.gNodeB10.pppIf.ppp transmissionState:vector ETV
attr interpolationmode sample-hold
attr source transmissionStateChanged
attr title "tx state, vector"
vector 58 Crocetta.gNodeB10.x2ppp[0].ppp transmissionState:vector ETV
attr interpolationmode sample-hold
attr source transmissionStateChanged
attr title "tx state, vector"
vector 59 Crocetta.gNodeB10.x2ppp[1].ppp transmissionState:vector ETV
attr interpolationmode sample-hold
attr source transmissionStateChanged
attr title "tx state, vector"
vector 60 Crocetta.gNodeB10.pppMEHostIf.ppp transmissionState:vector ETV
attr interpolationmode sample-hold
attr source transmissionStateChanged
attr title "tx state, vector"
vector 61 Crocetta.gNodeB11.pppIf.ppp transmissionState:vector ETV
attr interpolationmode sample-hold
attr source transmissionStateChanged
attr title "tx state, vector"
vector 62 Crocetta.gNodeB11.x2ppp[0].ppp transmissionState:vector ETV
attr interpolationmode sample-hold
attr source transmissionStateChanged
attr title "tx state, vector"
vector 63 Crocetta.gNodeB11.x2ppp[1].ppp transmissionState:vector ETV
attr interpolationmode sample-hold
attr source transmissionStateChanged
attr title "tx state, vector"
vector 64 Crocetta.gNodeB11.pppMEHostIf.ppp transmissionState:vector ETV
attr interpolationmode sample-hold
attr source transmissionStateChanged
attr title "tx state, vector"
vector 65 Crocetta.gNodeB12.pppIf.ppp transmissionState:vector ETV
attr interpolationmode sample-hold
attr source transmissionStateChanged
attr title "tx state, vector"
vector 66 Crocetta.gNodeB12.x2ppp[0].ppp transmissionState:vector ETV
attr interpolationmode sample-hold
attr source transmissionStateChanged
attr title "tx state, vector"
vector 67 Crocetta.gNodeB12.x2ppp[1].ppp transmissionState:vector ETV
attr interpolationmode sample-hold
attr source transmissionStateChanged
attr title "tx state, vector"
vector 68 Crocetta.gNodeB12.pppMEHostIf.ppp transmissionState:vector ETV
attr interpolationmode sample-hold
attr source transmissionStateChanged
attr title "tx state, vector"
vector 69 Crocetta.gNodeB13.pppIf.ppp transmissionState:vector ETV
attr interpolationmode sample-hold
attr source transmissionStateChanged
attr title "tx state, vector"
vector 70 Crocetta.gNodeB13.x2ppp[0].ppp transmissionState:vector ETV
attr interpolationmode sample-hold
attr source transmissionStateChanged
attr title "tx state, vector"
vector 71 Crocetta.gNodeB13.x2ppp[1].ppp transmissionState:vector ETV
attr interpolationmode sample-hold
attr source transmissionStateChanged
attr title "tx state, vector"
vector 72 Crocetta.gNodeB13.pppMEHostIf.ppp transmissionState:vector ETV
attr interpolationmode sample-hold
attr source transmissionStateChanged
attr title "tx state, vector"
vector 73 Crocetta.gNodeB14.pppIf.ppp transmissionState:vector ETV
attr interpolationmode sample-hold
attr source transmissionStateChanged
attr title "tx state, vector"
vector 74 Crocetta.gNodeB14.x2ppp[0].ppp transmissionState:vector ETV
attr interpolationmode sample-hold
attr source transmissionStateChanged
attr title "tx state, vector"
vector 75 Crocetta.gNodeB14.x2ppp[1].ppp transmissionState:vector ETV
attr interpolationmode sample-hold
attr source transmissionStateChanged
attr title "tx state, vector"
vector 76 Crocetta.gNodeB14.pppMEHostIf.ppp transmissionState:vector ETV
attr interpolationmode sample-hold
attr source transmissionStateChanged
attr title "tx state, vector"
vector 77 Crocetta.gNodeB15.pppIf.ppp transmissionState:vector ETV
attr interpolationmode sample-hold
attr source transmissionStateChanged
attr title "tx state, vector"
vector 78 Crocetta.gNodeB15.x2ppp[0].ppp transmissionState:vector ETV
attr interpolationmode sample-hold
attr source transmissionStateChanged
attr title "tx state, vector"
vector 79 Crocetta.gNodeB15.x2ppp[1].ppp transmissionState:vector ETV
attr interpolationmode sample-hold
attr source transmissionStateChanged
attr title "tx state, vector"
vector 80 Crocetta.gNodeB15.pppMEHostIf.ppp transmissionState:vector ETV
attr interpolationmode sample-hold
attr source transmissionStateChanged
attr title "tx state, vector"
vector 81 Crocetta.gNodeB16.pppIf.ppp transmissionState:vector ETV
attr interpolationmode sample-hold
attr source transmissionStateChanged
attr title "tx state, vector"
vector 82 Crocetta.gNodeB16.x2ppp[0].ppp transmissionState:vector ETV
attr interpolationmode sample-hold
attr source transmissionStateChanged
attr title "tx state, vector"
vector 83 Crocetta.gNodeB16.x2ppp[1].ppp transmissionState:vector ETV
attr interpolationmode sample-hold
attr source transmissionStateChanged
attr title "tx state, vector"
vector 84 Crocetta.gNodeB16.pppMEHostIf.ppp transmissionState:vector ETV
attr interpolationmode sample-hold
attr source transmissionStateChanged
attr title "tx state, vector"
vector 85 Crocetta.gNodeB17.pppIf.ppp transmissionState:vector ETV
attr interpolationmode sample-hold
attr source transmissionStateChanged
attr title "tx state, vector"
vector 86 Crocetta.gNodeB17.x2ppp[0].ppp transmissionState:vector ETV
attr interpolationmode sample-hold
attr source transmissionStateChanged
attr title "tx state, vector"
vector 87 Crocetta.gNodeB17.x2ppp[1].ppp transmissionState:vector ETV
attr interpolationmode sample-hold
attr source transmissionStateChanged
attr title "tx state, vector"
vector 88 Crocetta.gNodeB17.pppMEHostIf.ppp transmissionState:vector ETV
attr interpolationmode sample-hold
attr source transmissionStateChanged
attr title "tx state, vector"
vector 89 Crocetta.gNodeB1.sctp "Throughput of Association 292" ETV
vector 90 Crocetta.gNodeB1.sctp "Throughput of Association 293" ETV
vector 91 Crocetta.gNodeB2.sctp "Throughput of Association 294" ETV
vector 92 Crocetta.gNodeB2.sctp "Throughput of Association 295" ETV
vector 93 Crocetta.gNodeB3.sctp "Throughput of Association 296" ETV
vector 94 Crocetta.gNodeB3.sctp "Throughput of Association 297" ETV
vector 95 Crocetta.gNodeB4.sctp "Throughput of Association 298" ETV
vector 96 Crocetta.gNodeB4.sctp "Throughput of Association 299" ETV
vector 97 Crocetta.gNodeB5.sctp "Throughput of Association 300" ETV
vector 98 Crocetta.gNodeB5.sctp "Throughput of Association 301" ETV
vector 99 Crocetta.gNodeB6.sctp "Throughput of Association 302" ETV
vector 100 Crocetta.gNodeB6.sctp "Throughput of Association 303" ETV
vector 101 Crocetta.gNodeB7.sctp "Throughput of Association 304" ETV
vector 102 Crocetta.gNodeB7.sctp "Throughput of Association 305" ETV
vector 103 Crocetta.gNodeB8.sctp "Throughput of Association 306" ETV
vector 104 Crocetta.gNodeB8.sctp "Throughput of Association 307" ETV
vector 105 Crocetta.gNodeB9.sctp "Throughput of Association 308" ETV
vector 106 Crocetta.gNodeB9.sctp "Throughput of Association 309" ETV
vector 107 Crocetta.gNodeB10.sctp "Throughput of Association 310" ETV
vector 108 Crocetta.gNodeB10.sctp "Throughput of Association 311" ETV
vector 109 Crocetta.gNodeB11.sctp "Throughput of Association 312" ETV
vector 110 Crocetta.gNodeB11.sctp "Throughput of Association 313" ETV
vector 111 Crocetta.gNodeB12.sctp "Throughput of Association 314" ETV
vector 112 Crocetta.gNodeB12.sctp "Throughput of Association 315" ETV
vector 113 Crocetta.gNodeB13.sctp "Throughput of Association 316" ETV
vector 114 Crocetta.gNodeB13.sctp "Throughput of Association 317" ETV
vector 115 Crocetta.gNodeB14.sctp "Throughput of Association 318" ETV
vector 116 Crocetta.gNodeB14.sctp "Throughput of Association 319" ETV
vector 117 Crocetta.gNodeB15.sctp "Throughput of Association 320" ETV
vector 118 Crocetta.gNodeB15.sctp "Throughput of Association 321" ETV
vector 119 Crocetta.gNodeB16.sctp "Throughput of Association 322" ETV
vector 120 Crocetta.gNodeB16.sctp "Throughput of Association 323" ETV
vector 121 Crocetta.gNodeB17.sctp "Throughput of Association 324" ETV
vector 122 Crocetta.gNodeB17.sctp "Throughput of Association 325" ETV
vector 123 Crocetta.gNodeB1.sctp "Throughput of Association 104" ETV
vector 124 Crocetta.gNodeB1.sctp "Fast Recovery State 104:192.168.19.2" ETV
vector 125 Crocetta.gNodeB1.sctp "Throughput of Association 105" ETV
vector 126 Crocetta.gNodeB1.sctp "Fast Recovery State 105:192.168.50.2" ETV
vector 127 Crocetta.gNodeB2.sctp "Throughput of Association 109" ETV
vector 128 Crocetta.gNodeB2.sctp "Fast Recovery State 109:192.168.19.1" ETV
vector 129 Crocetta.gNodeB2.sctp "Throughput of Association 110" ETV
vector 130 Crocetta.gNodeB2.sctp "Fast Recovery State 110:192.168.22.2" ETV
vector 131 Crocetta.gNodeB3.sctp "Throughput of Association 114" ETV
vector 132 Crocetta.gNodeB3.sctp "Fast Recovery State 114:192.168.19.2" ETV
vector 133 Crocetta.gNodeB3.sctp "Throughput of Association 115" ETV
vector 134 Crocetta.gNodeB3.sctp "Fast Recovery State 115:192.168.24.2" ETV
vector 135 Crocetta.gNodeB4.sctp "Throughput of Association 119" ETV
vector 136 Crocetta.gNodeB4.sctp "Fast Recovery State 119:192.168.22.2" ETV
vector 137 Crocetta.gNodeB4.sctp "Throughput of Association 120" ETV
vector 138 Crocetta.gNodeB4.sctp "Fast Recovery State 120:192.168.26.2" ETV
vector 139 Crocetta.gNodeB5.sctp "Throughput of Association 124" ETV
vector 140 Crocetta.gNodeB5.sctp "Fast Recovery State 124:192.168.24.2" ETV
vector 141 Crocetta.gNodeB5.sctp "Throughput of Association 125" ETV
vector 142 Crocetta.gNodeB5.sctp "Fast Recovery State 125:192.168.28.2" ETV
vector 143 Crocetta.gNodeB6.sctp "Throughput of Association 129" ETV
vector 144 Crocetta.gNodeB6.sctp "Fast Recovery State 129:192.168.26.2" ETV
vector 145 Crocetta.gNodeB6.sctp "Throughput of Association 130" ETV
vector 146 Crocetta.gNodeB6.sctp "Fast Recovery State 130:192.168.30.2" ETV
vector 147 Crocetta.gNodeB7.sctp "Throughput of Association 134" ETV
vector 148 Crocetta.gNodeB7.sctp "Fast Recovery State 134:192.168.28.2" ETV
vector 149 Crocetta.gNodeB7.sctp "Throughput of Association 135" ETV
vector 150 Crocetta.gNodeB7.sctp "Fast Recovery State 135:192.168.32.2" ETV
vector 151 Crocetta.gNodeB8.sctp "Throughput of Association 139" ETV
vector 152 Crocetta.gNodeB8.sctp "Fast Recovery State 139:192.168.30.2" ETV
vector 153 Crocetta.gNodeB8.sctp "Throughput of Association 140" ETV
vector 154 Crocetta.gNodeB8.sctp "Fast Recovery State 140:192.168.34.2" ETV
vector 155 Crocetta.gNodeB9.sctp "Throughput of Association 144" ETV
vector 156 Crocetta.gNodeB9.sctp "Fast Recovery State 144:192.168.32.2" ETV
vector 157 Crocetta.gNodeB9.sctp "Throughput of Association 145" ETV
vector 158 Crocetta.gNodeB9.sctp "Fast Recovery State 145:192.168.36.2" ETV
vector 159 Crocetta.gNodeB10.sctp "Throughput of Association 149" ETV
vector 160 Crocetta.gNodeB10.sctp "Fast Recovery State 149:192.168.34.2" ETV
vector 161 Crocetta.gNodeB10.sctp "Throughput of Association 150" ETV
vector 162 Crocetta.gNodeB10.sctp "Fast Recovery State 150:192.168.38.2" ETV
vector 163 Crocetta.gNodeB11.sctp "Throughput of Association 154" ETV
vector 164 Crocetta.gNodeB11.sctp "Fast Recovery State 154:192.168.36.2" ETV
vector 165 Crocetta.gNodeB11.sctp "Throughput of Association 155" ETV
vector 166 Crocetta.gNodeB11.sctp "Fast Recovery State 155:192.168.40.2" ETV
vector 167 Crocetta.gNodeB12.sctp "Throughput of Association 159" ETV
vector 168 Crocetta.gNodeB12.sctp "Fast Recovery State 159:192.168.38.2" ETV
vector 169 Crocetta.gNodeB12.sctp "Throughput of Association 160" ETV
vector 170 Crocetta.gNodeB12.sctp "Fast Recovery State 160:192.168.42.2" ETV
vector 171 Crocetta.gNodeB13.sctp "Throughput of Association 164" ETV
vector 172 Crocetta.gNodeB13.sctp "Fast Recovery State 164:192.168.40.2" ETV
vector 173 Crocetta.gNodeB13.sctp "Throughput of Association 165" ETV
vector 174 Crocetta.gNodeB13.sctp "Fast Recovery State 165:192.168.44.2" ETV
vector 175 Crocetta.gNodeB14.sctp "Throughput of Association 169" ETV
vector 176 Crocetta.gNodeB14.sctp "Fast Recovery State 169:192.168.42.2" ETV
vector 177 Crocetta.gNodeB14.sctp "Throughput of Association 170" ETV
vector 178 Crocetta.gNodeB14.sctp "Fast Recovery State 170:192.168.46.2" ETV
vector 179 Crocetta.gNodeB15.sctp "Throughput of Association 174" ETV
vector 180 Crocetta.gNodeB15.sctp "Fast Recovery State 174:192.168.44.2" ETV
vector 181 Crocetta.gNodeB15.sctp "Throughput of Association 175" ETV
vector 182 Crocetta.gNodeB15.sctp "Fast Recovery State 175:192.168.48.2" ETV
vector 183 Crocetta.gNodeB16.sctp "Throughput of Association 179" ETV
vector 184 Crocetta.gNodeB16.sctp "Fast Recovery State 179:192.168.46.2" ETV
vector 185 Crocetta.gNodeB16.sctp "Throughput of Association 180" ETV
vector 186 Crocetta.gNodeB16.sctp "Fast Recovery State 180:192.168.50.2" ETV
vector 187 Crocetta.gNodeB17.sctp "Throughput of Association 184" ETV
vector 188 Crocetta.gNodeB17.sctp "Fast Recovery State 184:192.168.48.2" ETV
vector 189 Crocetta.gNodeB17.sctp "Throughput of Association 185" ETV
vector 190 Crocetta.gNodeB17.sctp "Fast Recovery State 185:192.168.19.1" ETV
vector 191 Crocetta.gNodeB1.x2ppp[0].ppp rcvdPkFromHl:vector(packetBytes) ETV
attr interpolationmode none
attr source packetReceivedFromUpper
attr title "packets received from higher layer, vector(packetBytes)"
vector 192 Crocetta.gNodeB1.x2ppp[0].ppp.queue packetPushed:vector(packetBytes) ETV
attr interpolationmode none
attr title "packet pushed, vector(packetBytes)"
vector 193 Crocetta.gNodeB1.x2ppp[0].ppp.queue queueLength:vector ETV
attr autoWarmupFilter false
attr interpolationmode sample-hold
attr source "warmup(count(packetPushed) - count(packetPulled) - count(packetRemoved) - count(packetDropped))"
attr title "queue length, vector"
attr type int
vector 194 Crocetta.gNodeB1.x2ppp[0].ppp.queue packetPulled:vector(packetBytes) ETV
attr interpolationmode none
attr title "packet pulled, vector(packetBytes)"
vector 195 Crocetta.gNodeB1.x2ppp[0].ppp.queue queueingTime:vector ETV
attr interpolationmode none
attr source queueingTime(packetPulled)
attr title "queueing times, vector"
attr unit s
vector 196 Crocetta.gNodeB1.x2ppp[0].ppp txPk:vector(packetBytes) ETV
attr interpolationmode none
attr source packetSentToLower
attr title "packets transmitted, vector(packetBytes)"
vector 197 Crocetta.gNodeB1.x2ppp[1].ppp rcvdPkFromHl:vector(packetBytes) ETV
attr interpolationmode none
attr source packetReceivedFromUpper
attr title "packets received from higher layer, vector(packetBytes)"
vector 198 Crocetta.gNodeB1.x2ppp[1].ppp.queue packetPushed:vector(packetBytes) ETV
attr interpolationmode none
attr title "packet pushed, vector(packetBytes)"
vector 199 Crocetta.gNodeB1.x2ppp[1].ppp.queue queueLength:vector ETV
attr autoWarmupFilter false
attr interpolationmode sample-hold
attr source "warmup(count(packetPushed) - count(packetPulled) - count(packetRemoved) - count(packetDropped))"
attr title "queue length, vector"
attr type int
vector 200 Crocetta.gNodeB1.x2ppp[1].ppp.queue packetPulled:vector(packetBytes) ETV
attr interpolationmode none
attr title "packet pulled, vector(packetBytes)"
vector 201 Crocetta.gNodeB1.x2ppp[1].ppp.queue queueingTime:vector ETV
attr interpolationmode none
attr source queueingTime(packetPulled)
attr title "queueing times, vector"
attr unit s
vector 202 Crocetta.gNodeB1.x2ppp[1].ppp txPk:vector(packetBytes) ETV
attr interpolationmode none
attr source packetSentToLower
attr title "packets transmitted, vector(packetBytes)"
vector 203 Crocetta.gNodeB2.x2ppp[0].ppp rcvdPkFromHl:vector(packetBytes) ETV
attr interpolationmode none
attr source packetReceivedFromUpper
attr title "packets received from higher layer, vector(packetBytes)"
vector 204 Crocetta.gNodeB2.x2ppp[0].ppp.queue packetPushed:vector(packetBytes) ETV
attr interpolationmode none
attr title "packet pushed, vector(packetBytes)"
vector 205 Crocetta.gNodeB2.x2ppp[0].ppp.queue queueLength:vector ETV
attr autoWarmupFilter false
attr interpolationmode sample-hold
attr source "warmup(count(packetPushed) - count(packetPulled) - count(packetRemoved) - count(packetDropped))"
attr title "queue length, vector"
attr type int
vector 206 Crocetta.gNodeB2.x2ppp[0].ppp.queue packetPulled:vector(packetBytes) ETV
attr interpolationmode none
attr title "packet pulled, vector(packetBytes)"
vector 207 Crocetta.gNodeB2.x2ppp[0].ppp.queue queueingTime:vector ETV
attr interpolationmode none
attr source queueingTime(packetPulled)
attr title "queueing times, vector"
attr unit s
vector 208 Crocetta.gNodeB2.x2ppp[0].ppp txPk:vector(packetBytes) ETV
attr interpolationmode none
attr source packetSentToLower
attr title "packets transmitted, vector(packetBytes)"
vector 209 Crocetta.gNodeB2.x2ppp[1].ppp rcvdPkFromHl:vector(packetBytes) ETV
attr interpolationmode none
attr source packetReceivedFromUpper
attr title "packets received from higher layer, vector(packetBytes)"
vector 210 Crocetta.gNodeB2.x2ppp[1].ppp.queue packetPushed:vector(packetBytes) ETV
attr interpolationmode none
attr title "packet pushed, vector(packetBytes)"
vector 211 Crocetta.gNodeB2.x2ppp[1].ppp.queue queueLength:vector ETV
attr autoWarmupFilter false
attr interpolationmode sample-hold
attr source "warmup(count(packetPushed) - count(packetPulled) - count(packetRemoved) - count(packetDropped))"
attr title "queue length, vector"
attr type int
vector 212 Crocetta.gNodeB2.x2ppp[1].ppp.queue packetPulled:vector(packetBytes) ETV
attr interpolationmode none
attr title "packet pulled, vector(packetBytes)"
vector 213 Crocetta.gNodeB2.x2ppp[1].ppp.queue queueingTime:vector ETV
attr interpolationmode none
attr source queueingTime(packetPulled)
attr title "queueing times, vector"
attr unit s
vector 214 Crocetta.gNodeB2.x2ppp[1].ppp txPk:vector(packetBytes) ETV
attr interpolationmode none
attr source packetSentToLower
attr title "packets transmitted, vector(packetBytes)"
vector 215 Crocetta.gNodeB3.x2ppp[0].ppp rcvdPkFromHl:vector(packetBytes) ETV
attr interpolationmode none
attr source packetReceivedFromUpper
attr title "packets received from higher layer, vector(packetBytes)"
vector 216 Crocetta.gNodeB3.x2ppp[0].ppp.queue packetPushed:vector(packetBytes) ETV
attr interpolationmode none
attr title "packet pushed, vector(packetBytes)"
vector 217 Crocetta.gNodeB3.x2ppp[0].ppp.queue queueLength:vector ETV
attr autoWarmupFilter false
attr interpolationmode sample-hold
attr source "warmup(count(packetPushed) - count(packetPulled) - count(packetRemoved) - count(packetDropped))"
attr title "queue length, vector"
attr type int
vector 218 Crocetta.gNodeB3.x2ppp[0].ppp.queue packetPulled:vector(packetBytes) ETV
attr interpolationmode none
attr title "packet pulled, vector(packetBytes)"
vector 219 Crocetta.gNodeB3.x2ppp[0].ppp.queue queueingTime:vector ETV
attr interpolationmode none
attr source queueingTime(packetPulled)
attr title "queueing times, vector"
attr unit s
vector 220 Crocetta.gNodeB3.x2ppp[0].ppp txPk:vector(packetBytes) ETV
attr interpolationmode none
attr source packetSentToLower
attr title "packets transmitted, vector(packetBytes)"
vector 221 Crocetta.gNodeB3.x2ppp[1].ppp rcvdPkFromHl:vector(packetBytes) ETV
attr interpolationmode none
attr source packetReceivedFromUpper
attr title "packets received from higher layer, vector(packetBytes)"
vector 222 Crocetta.gNodeB3.x2ppp[1].ppp.queue packetPushed:vector(packetBytes) ETV
attr interpolationmode none
attr title "packet pushed, vector(packetBytes)"
vector 223 Crocetta.gNodeB3.x2ppp[1].ppp.queue queueLength:vector ETV
attr autoWarmupFilter false
attr interpolationmode sample-hold
attr source "warmup(count(packetPushed) - count(packetPulled) - count(packetRemoved) - count(packetDropped))"
attr title "queue length, vector"
attr type int
vector 224 Crocetta.gNodeB3.x2ppp[1].ppp.queue packetPulled:vector(packetBytes) ETV
attr interpolationmode none
attr title "packet pulled, vector(packetBytes)"
vector 225 Crocetta.gNodeB3.x2ppp[1].ppp.queue queueingTime:vector ETV
attr interpolationmode none
attr source queueingTime(packetPulled)
attr title "queueing times, vector"
attr unit s
vector 226 Crocetta.gNodeB3.x2ppp[1].ppp txPk:vector(packetBytes) ETV
attr interpolationmode none
attr source packetSentToLower
attr title "packets transmitted, vector(packetBytes)"
vector 227 Crocetta.gNodeB4.x2ppp[0].ppp rcvdPkFromHl:vector(packetBytes) ETV
attr interpolationmode none
attr source packetReceivedFromUpper
attr title "packets received from higher layer, vector(packetBytes)"
vector 228 Crocetta.gNodeB4.x2ppp[0].ppp.queue packetPushed:vector(packetBytes) ETV
attr interpolationmode none
attr title "packet pushed, vector(packetBytes)"
vector 229 Crocetta.gNodeB4.x2ppp[0].ppp.queue queueLength:vector ETV
attr autoWarmupFilter false
attr interpolationmode sample-hold
attr source "warmup(count(packetPushed) - count(packetPulled) - count(packetRemoved) - count(packetDropped))"
attr title "queue length, vector"
attr type int
vector 230 Crocetta.gNodeB4.x2ppp[0].ppp.queue packetPulled:vector(packetBytes) ETV
attr interpolationmode none
attr title "packet pulled, vector(packetBytes)"
vector 231 Crocetta.gNodeB4.x2ppp[0].ppp.queue queueingTime:vector ETV
attr interpolationmode none
attr source queueingTime(packetPulled)
attr title "queueing times, vector"
attr unit s
vector 232 Crocetta.gNodeB4.x2ppp[0].ppp txPk:vector(packetBytes) ETV
attr interpolationmode none
attr source packetSentToLower
attr title "packets transmitted, vector(packetBytes)"
vector 233 Crocetta.gNodeB4.x2ppp[1].ppp rcvdPkFromHl:vector(packetBytes) ETV
attr interpolationmode none
attr source packetReceivedFromUpper
attr title "packets received from higher layer, vector(packetBytes)"
vector 234 Crocetta.gNodeB4.x2ppp[1].ppp.queue packetPushed:vector(packetBytes) ETV
attr interpolationmode none
attr title "packet pushed, vector(packetBytes)"
vector 235 Crocetta.gNodeB4.x2ppp[1].ppp.queue queueLength:vector ETV
attr autoWarmupFilter false
attr interpolationmode sample-hold
attr source "warmup(count(packetPushed) - count(packetPulled) - count(packetRemoved) - count(packetDropped))"
attr title "queue length, vector"
attr type int
vector 236 Crocetta.gNodeB4.x2ppp[1].ppp.queue packetPulled:vector(packetBytes) ETV
attr interpolationmode none
attr title "packet pulled, vector(packetBytes)"
vector 237 Crocetta.gNodeB4.x2ppp[1].ppp.queue queueingTime:vector ETV
attr interpolationmode none
attr source queueingTime(packetPulled)
attr title "queueing times, vector"
attr unit s
vector 238 Crocetta.gNodeB4.x2ppp[1].ppp txPk:vector(packetBytes) ETV
attr interpolationmode none
attr source packetSentToLower
attr title "packets transmitted, vector(packetBytes)"
vector 239 Crocetta.gNodeB5.x2ppp[0].ppp rcvdPkFromHl:vector(packetBytes) ETV
attr interpolationmode none
attr source packetReceivedFromUpper
attr title "packets received from higher layer, vector(packetBytes)"
vector 240 Crocetta.gNodeB5.x2ppp[0].ppp.queue packetPushed:vector(packetBytes) ETV
attr interpolationmode none
attr title "packet pushed, vector(packetBytes)"
vector 241 Crocetta.gNodeB5.x2ppp[0].ppp.queue queueLength:vector ETV
attr autoWarmupFilter false
attr interpolationmode sample-hold
attr source "warmup(count(packetPushed) - count(packetPulled) - count(packetRemoved) - count(packetDropped))"
attr title "queue length, vector"
attr type int
vector 242 Crocetta.gNodeB5.x2ppp[0].ppp.queue packetPulled:vector(packetBytes) ETV
attr interpolationmode none
attr title "packet pulled, vector(packetBytes)"
vector 243 Crocetta.gNodeB5.x2ppp[0].ppp.queue queueingTime:vector ETV
attr interpolationmode none
attr source queueingTime(packetPulled)
attr title "queueing times, vector"
attr unit s
vector 244 Crocetta.gNodeB5.x2ppp[0].ppp txPk:vector(packetBytes) ETV
attr interpolationmode none
attr source packetSentToLower
attr title "packets transmitted, vector(packetBytes)"
vector 245 Crocetta.gNodeB5.x2ppp[1].ppp rcvdPkFromHl:vector(packetBytes) ETV
attr interpolationmode none
attr source packetReceivedFromUpper
attr title "packets received from higher layer, vector(packetBytes)"
vector 246 Crocetta.gNodeB5.x2ppp[1].ppp.queue packetPushed:vector(packetBytes) ETV
attr interpolationmode none
attr title "packet pushed, vector(packetBytes)"
vector 247 Crocetta.gNodeB5.x2ppp[1].ppp.queue queueLength:vector ETV
attr autoWarmupFilter false
attr interpolationmode sample-hold
attr source "warmup(count(packetPushed) - count(packetPulled) - count(packetRemoved) - count(packetDropped))"
attr title "queue length, vector"
attr type int
vector 248 Crocetta.gNodeB5.x2ppp[1].ppp.queue packetPulled:vector(packetBytes) ETV
attr interpolationmode none
attr title "packet pulled, vector(packetBytes)"
vector 249 Crocetta.gNodeB5.x2ppp[1].ppp.queue queueingTime:vector ETV
attr interpolationmode none
attr source queueingTime(packetPulled)
attr title "queueing times, vector"
attr unit s
vector 250 Crocetta.gNodeB5.x2ppp[1].ppp txPk:vector(packetBytes) ETV
attr interpolationmode none
attr source packetSentToLower
attr title "packets transmitted, vector(packetBytes)"
vector 251 Crocetta.gNodeB6.x2ppp[0].ppp rcvdPkFromHl:vector(packetBytes) ETV
attr interpolationmode none
attr source packetReceivedFromUpper
attr title "packets received from higher layer, vector(packetBytes)"
vector 252 Crocetta.gNodeB6.x2ppp[0].ppp.queue packetPushed:vector(packetBytes) ETV
attr interpolationmode none
attr title "packet pushed, vector(packetBytes)"
vector 253 Crocetta.gNodeB6.x2ppp[0].ppp.queue queueLength:vector ETV
attr autoWarmupFilter false
attr interpolationmode sample-hold
attr source "warmup(count(packetPushed) - count(packetPulled) - count(packetRemoved) - count(packetDropped))"
attr title "queue length, vector"
attr type int
vector 254 Crocetta.gNodeB6.x2ppp[0].ppp.queue packetPulled:vector(packetBytes) ETV
attr interpolationmode none
attr title "packet pulled, vector(packetBytes)"
vector 255 Crocetta.gNodeB6.x2ppp[0].ppp.queue queueingTime:vector ETV
attr interpolationmode none
attr source queueingTime(packetPulled)
attr title "queueing times, vector"
attr unit s
vector 256 Crocetta.gNodeB6.x2ppp[0].ppp txPk:vector(packetBytes) ETV
attr interpolationmode none
attr source packetSentToLower
attr title "packets transmitted, vector(packetBytes)"
vector 257 Crocetta.gNodeB6.x2ppp[1].ppp rcvdPkFromHl:vector(packetBytes) ETV
attr interpolationmode none
attr source packetReceivedFromUpper
attr title "packets received from higher layer, vector(packetBytes)"
vector 258 Crocetta.gNodeB6.x2ppp[1].ppp.queue packetPushed:vector(packetBytes) ETV
attr interpolationmode none
attr title "packet pushed, vector(packetBytes)"
vector 259 Crocetta.gNodeB6.x2ppp[1].ppp.queue queueLength:vector ETV
attr autoWarmupFilter false
attr interpolationmode sample-hold
attr source "warmup(count(packetPushed) - count(packetPulled) - count(packetRemoved) - count(packetDropped))"
attr title "queue length, vector"
attr type int
vector 260 Crocetta.gNodeB6.x2ppp[1].ppp.queue packetPulled:vector(packetBytes) ETV
attr interpolationmode none
attr title "packet pulled, vector(packetBytes)"
vector 261 Crocetta.gNodeB6.x2ppp[1].ppp.queue queueingTime:vector ETV
attr interpolationmode none
attr source queueingTime(packetPulled)
attr title "queueing times, vector"
attr unit s
vector 262 Crocetta.gNodeB6.x2ppp[1].ppp txPk:vector(packetBytes) ETV
attr interpolationmode none
attr source packetSentToLower
attr title "packets transmitted, vector(packetBytes)"
vector 263 Crocetta.gNodeB7.x2ppp[0].ppp rcvdPkFromHl:vector(packetBytes) ETV
attr interpolationmode none
attr source packetReceivedFromUpper
attr title "packets received from higher layer, vector(packetBytes)"
vector 264 Crocetta.gNodeB7.x2ppp[0].ppp.queue packetPushed:vector(packetBytes) ETV
attr interpolationmode none
attr title "packet pushed, vector(packetBytes)"
vector 265 Crocetta.gNodeB7.x2ppp[0].ppp.queue queueLength:vector ETV
attr autoWarmupFilter false
attr interpolationmode sample-hold
attr source "warmup(count(packetPushed) - count(packetPulled) - count(packetRemoved) - count(packetDropped))"
attr title "queue length, vector"
attr type int
vector 266 Crocetta.gNodeB7.x2ppp[0].ppp.queue packetPulled:vector(packetBytes) ETV
attr interpolationmode none
attr title "packet pulled, vector(packetBytes)"
vector 267 Crocetta.gNodeB7.x2ppp[0].ppp.queue queueingTime:vector ETV
attr interpolationmode none
attr source queueingTime(packetPulled)
attr title "queueing times, vector"
attr unit s
vector 268 Crocetta.gNodeB7.x2ppp[0].ppp txPk:vector(packetBytes) ETV
attr interpolationmode none
attr source packetSentToLower
attr title "packets transmitted, vector(packetBytes)"
vector 269 Crocetta.gNodeB7.x2ppp[1].ppp rcvdPkFromHl:vector(packetBytes) ETV
attr interpolationmode none
attr source packetReceivedFromUpper
attr title "packets received from higher layer, vector(packetBytes)"
vector 270 Crocetta.gNodeB7.x2ppp[1].ppp.queue packetPushed:vector(packetBytes) ETV
attr interpolationmode none
attr title "packet pushed, vector(packetBytes)"
vector 271 Crocetta.gNodeB7.x2ppp[1].ppp.queue queueLength:vector ETV
attr autoWarmupFilter false
attr interpolationmode sample-hold
attr source "warmup(count(packetPushed) - count(packetPulled) - count(packetRemoved) - count(packetDropped))"
attr title "queue length, vector"
attr type int
vector 272 Crocetta.gNodeB7.x2ppp[1].ppp.queue packetPulled:vector(packetBytes) ETV
attr interpolationmode none
attr title "packet pulled, vector(packetBytes)"
vector 273 Crocetta.gNodeB7.x2ppp[1].ppp.queue queueingTime:vector ETV
attr interpolationmode none
attr source queueingTime(packetPulled)
attr title "queueing times, vector"
attr unit s
vector 274 Crocetta.gNodeB7.x2ppp[1].ppp txPk:vector(packetBytes) ETV
attr interpolationmode none
attr source packetSentToLower
attr title "packets transmitted, vector(packetBytes)"
vector 275 Crocetta.gNodeB8.x2ppp[0].ppp rcvdPkFromHl:vector(packetBytes) ETV
attr interpolationmode none
attr source packetReceivedFromUpper
attr title "packets received from higher layer, vector(packetBytes)"
vector 276 Crocetta.gNodeB8.x2ppp[0].ppp.queue packetPushed:vector(packetBytes) ETV
attr interpolationmode none
attr title "packet pushed, vector(packetBytes)"
vector 277 Crocetta.gNodeB8.x2ppp[0].ppp.queue queueLength:vector ETV
attr autoWarmupFilter false
attr interpolationmode sample-hold
attr source "warmup(count(packetPushed) - count(packetPulled) - count(packetRemoved) - count(packetDropped))"
attr title "queue length, vector"
attr type int
vector 278 Crocetta.gNodeB8.x2ppp[0].ppp.queue packetPulled:vector(packetBytes) ETV
attr interpolationmode none
attr title "packet pulled, vector(packetBytes)"
vector 279 Crocetta.gNodeB8.x2ppp[0].ppp.queue queueingTime:vector ETV
attr interpolationmode none
attr source queueingTime(packetPulled)
attr title "queueing times, vector"
attr unit s
vector 280 Crocetta.gNodeB8.x2ppp[0].ppp txPk:vector(packetBytes) ETV
attr interpolationmode none
attr source packetSentToLower
attr title "packets transmitted, vector(packetBytes)"
vector 281 Crocetta.gNodeB8.x2ppp[1].ppp rcvdPkFromHl:vector(packetBytes) ETV
attr interpolationmode none
attr source packetReceivedFromUpper
attr title "packets received from higher layer, vector(packetBytes)"
vector 282 Crocetta.gNodeB8.x2ppp[1].ppp.queue packetPushed:vector(packetBytes) ETV
attr interpolationmode none
attr title "packet pushed, vector(packetBytes)"
vector 283 Crocetta.gNodeB8.x2ppp[1].ppp.queue queueLength:vector ETV
attr autoWarmupFilter false
attr interpolationmode sample-hold
attr source "warmup(count(packetPushed) - count(packetPulled) - count(packetRemoved) - count(packetDropped))"
attr title "queue length, vector"
attr type int
vector 284 Crocetta.gNodeB8.x2ppp[1].ppp.queue packetPulled:vector(packetBytes) ETV
attr interpolationmode none
attr title "packet pulled, vector(packetBytes)"
vector 285 Crocetta.gNodeB8.x2ppp[1].ppp.queue queueingTime:vector ETV
attr interpolationmode none
attr source queueingTime(packetPulled)
attr title "queueing times, vector"
attr unit s
vector 286 Crocetta.gNodeB8.x2ppp[1].ppp txPk:vector(packetBytes) ETV
attr interpolationmode none
attr source packetSentToLower
attr title "packets transmitted, vector(packetBytes)"
vector 287 Crocetta.gNodeB9.x2ppp[0].ppp rcvdPkFromHl:vector(packetBytes) ETV
attr interpolationmode none
attr source packetReceivedFromUpper
attr title "packets received from higher layer, vector(packetBytes)"
vector 288 Crocetta.gNodeB9.x2ppp[0].ppp.queue packetPushed:vector(packetBytes) ETV
attr interpolationmode none
attr title "packet pushed, vector(packetBytes)"
vector 289 Crocetta.gNodeB9.x2ppp[0].ppp.queue queueLength:vector ETV
attr autoWarmupFilter false
attr interpolationmode sample-hold
attr source "warmup(count(packetPushed) - count(packetPulled) - count(packetRemoved) - count(packetDropped))"
attr title "queue length, vector"
attr type int
vector 290 Crocetta.gNodeB9.x2ppp[0].ppp.queue packetPulled:vector(packetBytes) ETV
attr interpolationmode none
attr title "packet pulled, vector(packetBytes)"
vector 291 Crocetta.gNodeB9.x2ppp[0].ppp.queue queueingTime:vector ETV
attr interpolationmode none
attr source queueingTime(packetPulled)
attr title "queueing times, vector"
attr unit s
vector 292 Crocetta.gNodeB9.x2ppp[0].ppp txPk:vector(packetBytes) ETV
attr interpolationmode none
attr source packetSentToLower
attr title "packets transmitted, vector(packetBytes)"
vector 293 Crocetta.gNodeB9.x2ppp[1].ppp rcvdPkFromHl:vector(packetBytes) ETV
attr interpolationmode none
attr source packetReceivedFromUpper
attr title "packets received from higher layer, vector(packetBytes)"
vector 294 Crocetta.gNodeB9.x2ppp[1].ppp.queue packetPushed:vector(packetBytes) ETV
attr interpolationmode none
attr title "packet pushed, vector(packetBytes)"
vector 295 Crocetta.gNodeB9.x2ppp[1].ppp.queue queueLength:vector ETV
attr autoWarmupFilter false
attr interpolationmode sample-hold
attr source "warmup(count(packetPushed) - count(packetPulled) - count(packetRemoved) - count(packetDropped))"
attr title "queue length, vector"
attr type int
vector 296 Crocetta.gNodeB9.x2ppp[1].ppp.queue packetPulled:vector(packetBytes) ETV
attr interpolationmode none
attr title "packet pulled, vector(packetBytes)"
vector 297 Crocetta.gNodeB9.x2ppp[1].ppp.queue queueingTime:vector ETV
attr interpolationmode none
attr source queueingTime(packetPulled)
attr title "queueing times, vector"
attr unit s
vector 298 Crocetta.gNodeB9.x2ppp[1].ppp txPk:vector(packetBytes) ETV
attr interpolationmode none
attr source packetSentToLower
attr title "packets transmitted, vector(packetBytes)"
vector 299 Crocetta.gNodeB10.x2ppp[0].ppp rcvdPkFromHl:vector(packetBytes) ETV
attr interpolationmode none
attr source packetReceivedFromUpper
attr title "packets received from higher layer, vector(packetBytes)"
vector 300 Crocetta.gNodeB10.x2ppp[0].ppp.queue packetPushed:vector(packetBytes) ETV
attr interpolationmode none
attr title "packet pushed, vector(packetBytes)"
vector 301 Crocetta.gNodeB10.x2ppp[0].ppp.queue queueLength:vector ETV
attr autoWarmupFilter false
attr interpolationmode sample-hold
attr source "warmup(count(packetPushed) - count(packetPulled) - count(packetRemoved) - count(packetDropped))"
attr title "queue length, vector"
attr type int
vector 302 Crocetta.gNodeB10.x2ppp[0].ppp.queue packetPulled:vector(packetBytes) ETV
attr interpolationmode none
attr title "packet pulled, vector(packetBytes)"
vector 303 Crocetta.gNodeB10.x2ppp[0].ppp.queue queueingTime:vector ETV
attr interpolationmode none
attr source queueingTime(packetPulled)
attr title "queueing times, vector"
attr unit s
vector 304 Crocetta.gNodeB10.x2ppp[0].ppp txPk:vector(packetBytes) ETV
attr interpolationmode none
attr source packetSentToLower
attr title "packets transmitted, vector(packetBytes)"
vector 305 Crocetta.gNodeB10.x2ppp[1].ppp rcvdPkFromHl:vector(packetBytes) ETV
attr interpolationmode none
attr source packetReceivedFromUpper
attr title "packets received from higher layer, vector(packetBytes)"
vector 306 Crocetta.gNodeB10.x2ppp[1].ppp.queue packetPushed:vector(packetBytes) ETV
attr interpolationmode none
attr title "packet pushed, vector(packetBytes)"
vector 307 Crocetta.gNodeB10.x2ppp[1].ppp.queue queueLength:vector ETV
attr autoWarmupFilter false
attr interpolationmode sample-hold
attr source "warmup(count(packetPushed) - count(packetPulled) - count(packetRemoved) - count(packetDropped))"
attr title "queue length, vector"
attr type int
vector 308 Crocetta.gNodeB10.x2ppp[1].ppp.queue packetPulled:vector(packetBytes) ETV
attr interpolationmode none
attr title "packet pulled, vector(packetBytes)"
vector 309 Crocetta.gNodeB10.x2ppp[1].ppp.queue queueingTime:vector ETV
attr interpolationmode none
attr source queueingTime(packetPulled)
attr title "queueing times, vector"
attr unit s
vector 310 Crocetta.gNodeB10.x2ppp[1].ppp txPk:vector(packetBytes) ETV
attr interpolationmode none
attr source packetSentToLower
attr title "packets transmitted, vector(packetBytes)"
vector 311 Crocetta.gNodeB11.x2ppp[0].ppp rcvdPkFromHl:vector(packetBytes) ETV
attr interpolationmode none
attr source packetReceivedFromUpper
attr title "packets received from higher layer, vector(packetBytes)"
vector 312 Crocetta.gNodeB11.x2ppp[0].ppp.queue packetPushed:vector(packetBytes) ETV
attr interpolationmode none
attr title "packet pushed, vector(packetBytes)"
vector 313 Crocetta.gNodeB11.x2ppp[0].ppp.queue queueLength:vector ETV
attr autoWarmupFilter false
attr interpolationmode sample-hold
attr source "warmup(count(packetPushed) - count(packetPulled) - count(packetRemoved) - count(packetDropped))"
attr title "queue length, vector"
attr type int
vector 314 Crocetta.gNodeB11.x2ppp[0].ppp.queue packetPulled:vector(packetBytes) ETV
attr interpolationmode none
attr title "packet pulled, vector(packetBytes)"
vector 315 Crocetta.gNodeB11.x2ppp[0].ppp.queue queueingTime:vector ETV
attr interpolationmode none
attr source queueingTime(packetPulled)
attr title "queueing times, vector"
attr unit s
vector 316 Crocetta.gNodeB11.x2ppp[0].ppp txPk:vector(packetBytes) ETV
attr interpolationmode none
attr source packetSentToLower
attr title "packets transmitted, vector(packetBytes)"
vector 317 Crocetta.gNodeB11.x2ppp[1].ppp rcvdPkFromHl:vector(packetBytes) ETV
attr interpolationmode none
attr source packetReceivedFromUpper
attr title "packets received from higher layer, vector(packetBytes)"
vector 318 Crocetta.gNodeB11.x2ppp[1].ppp.queue packetPushed:vector(packetBytes) ETV
attr interpolationmode none
attr title "packet pushed, vector(packetBytes)"
vector 319 Crocetta.gNodeB11.x2ppp[1].ppp.queue queueLength:vector ETV
attr autoWarmupFilter false
attr interpolationmode sample-hold
attr source "warmup(count(packetPushed) - count(packetPulled) - count(packetRemoved) - count(packetDropped))"
attr title "queue length, vector"
attr type int
vector 320 Crocetta.gNodeB11.x2ppp[1].ppp.queue packetPulled:vector(packetBytes) ETV
attr interpolationmode none
attr title "packet pulled, vector(packetBytes)"
vector 321 Crocetta.gNodeB11.x2ppp[1].ppp.queue queueingTime:vector ETV
attr interpolationmode none
attr source queueingTime(packetPulled)
attr title "queueing times, vector"
attr unit s
vector 322 Crocetta.gNodeB11.x2ppp[1].ppp txPk:vector(packetBytes) ETV
attr interpolationmode none
attr source packetSentToLower
attr title "packets transmitted, vector(packetBytes)"
vector 323 Crocetta.gNodeB12.x2ppp[0].ppp rcvdPkFromHl:vector(packetBytes) ETV
attr interpolationmode none
attr source packetReceivedFromUpper
attr title "packets received from higher layer, vector(packetBytes)"
vector 324 Crocetta.gNodeB12.x2ppp[0].ppp.queue packetPushed:vector(packetBytes) ETV
attr interpolationmode none
attr title "packet pushed, vector(packetBytes)"
vector 325 Crocetta.gNodeB12.x2ppp[0].ppp.queue queueLength:vector ETV
attr autoWarmupFilter false
attr interpolationmode sample-hold
attr source "warmup(count(packetPushed) - count(packetPulled) - count(packetRemoved) - count(packetDropped))"
attr title "queue length, vector"
attr type int
vector 326 Crocetta.gNodeB12.x2ppp[0].ppp.queue packetPulled:vector(packetBytes) ETV
attr interpolationmode none
attr title "packet pulled, vector(packetBytes)"
vector 327 Crocetta.gNodeB12.x2ppp[0].ppp.queue queueingTime:vector ETV
attr interpolationmode none
attr source queueingTime(packetPulled)
attr title "queueing times, vector"
attr unit s
vector 328 Crocetta.gNodeB12.x2ppp[0].ppp txPk:vector(packetBytes) ETV
attr interpolationmode none
attr source packetSentToLower
attr title "packets transmitted, vector(packetBytes)"
vector 329 Crocetta.gNodeB12.x2ppp[1].ppp rcvdPkFromHl:vector(packetBytes) ETV
attr interpolationmode none
attr source packetReceivedFromUpper
attr title "packets received from higher layer, vector(packetBytes)"
vector 330 Crocetta.gNodeB12.x2ppp[1].ppp.queue packetPushed:vector(packetBytes) ETV
attr interpolationmode none
attr title "packet pushed, vector(packetBytes)"
vector 331 Crocetta.gNodeB12.x2ppp[1].ppp.queue queueLength:vector ETV
attr autoWarmupFilter false
attr interpolationmode sample-hold
attr source "warmup(count(packetPushed) - count(packetPulled) - count(packetRemoved) - count(packetDropped))"
attr title "queue length, vector"
attr type int
vector 332 Crocetta.gNodeB12.x2ppp[1].ppp.queue packetPulled:vector(packetBytes) ETV
attr interpolationmode none
attr title "packet pulled, vector(packetBytes)"
vector 333 Crocetta.gNodeB12.x2ppp[1].ppp.queue queueingTime:vector ETV
attr interpolationmode none
attr source queueingTime(packetPulled)
attr title "queueing times, vector"
attr unit s
vector 334 Crocetta.gNodeB12.x2ppp[1].ppp txPk:vector(packetBytes) ETV
attr interpolationmode none
attr source packetSentToLower
attr title "packets transmitted, vector(packetBytes)"
vector 335 Crocetta.gNodeB13.x2ppp[0].ppp rcvdPkFromHl:vector(packetBytes) ETV
attr interpolationmode none
attr source packetReceivedFromUpper
attr title "packets received from higher layer, vector(packetBytes)"
vector 336 Crocetta.gNodeB13.x2ppp[0].ppp.queue packetPushed:vector(packetBytes) ETV
attr interpolationmode none
attr title "packet pushed, vector(packetBytes)"
vector 337 Crocetta.gNodeB13.x2ppp[0].ppp.queue queueLength:vector ETV
attr autoWarmupFilter false
attr interpolationmode sample-hold
attr source "warmup(count(packetPushed) - count(packetPulled) - count(packetRemoved) - count(packetDropped))"
attr title "queue length, vector"
attr type int
vector 338 Crocetta.gNodeB13.x2ppp[0].ppp.queue packetPulled:vector(packetBytes) ETV
attr interpolationmode none
attr title "packet pulled, vector(packetBytes)"
vector 339 Crocetta.gNodeB13.x2ppp[0].ppp.queue queueingTime:vector ETV
attr interpolationmode none
attr source queueingTime(packetPulled)
attr title "queueing times, vector"
attr unit s
vector 340 Crocetta.gNodeB13.x2ppp[0].ppp txPk:vector(packetBytes) ETV
attr interpolationmode none
attr source packetSentToLower
attr title "packets transmitted, vector(packetBytes)"
vector 341 Crocetta.gNodeB13.x2ppp[1].ppp rcvdPkFromHl:vector(packetBytes) ETV
attr interpolationmode none
attr source packetReceivedFromUpper
attr title "packets received from higher layer, vector(packetBytes)"
vector 342 Crocetta.gNodeB13.x2ppp[1].ppp.queue packetPushed:vector(packetBytes) ETV
attr interpolationmode none
attr title "packet pushed, vector(packetBytes)"
vector 343 Crocetta.gNodeB13.x2ppp[1].ppp.queue queueLength:vector ETV
attr autoWarmupFilter false
attr interpolationmode sample-hold
attr source "warmup(count(packetPushed) - count(packetPulled) - count(packetRemoved) - count(packetDropped))"
attr title "queue length, vector"
attr type int
vector 344 Crocetta.gNodeB13.x2ppp[1].ppp.queue packetPulled:vector(packetBytes) ETV
attr interpolationmode none
attr title "packet pulled, vector(packetBytes)"
vector 345 Crocetta.gNodeB13.x2ppp[1].ppp.queue queueingTime:vector ETV
attr interpolationmode none
attr source queueingTime(packetPulled)
attr title "queueing times, vector"
attr unit s
vector 346 Crocetta.gNodeB13.x2ppp[1].ppp txPk:vector(packetBytes) ETV
attr interpolationmode none
attr source packetSentToLower
attr title "packets transmitted, vector(packetBytes)"
vector 347 Crocetta.gNodeB14.x2ppp[0].ppp rcvdPkFromHl:vector(packetBytes) ETV
attr interpolationmode none
attr source packetReceivedFromUpper
attr title "packets received from higher layer, vector(packetBytes)"
vector 348 Crocetta.gNodeB14.x2ppp[0].ppp.queue packetPushed:vector(packetBytes) ETV
attr interpolationmode none
attr title "packet pushed, vector(packetBytes)"
vector 349 Crocetta.gNodeB14.x2ppp[0].ppp.queue queueLength:vector ETV
attr autoWarmupFilter false
attr interpolationmode sample-hold
attr source "warmup(count(packetPushed) - count(packetPulled) - count(packetRemoved) - count(packetDropped))"
attr title "queue length, vector"
attr type int
vector 350 Crocetta.gNodeB14.x2ppp[0].ppp.queue packetPulled:vector(packetBytes) ETV
attr interpolationmode none
attr title "packet pulled, vector(packetBytes)"
vector 351 Crocetta.gNodeB14.x2ppp[0].ppp.queue queueingTime:vector ETV
attr interpolationmode none
attr source queueingTime(packetPulled)
attr title "queueing times, vector"
attr unit s
vector 352 Crocetta.gNodeB14.x2ppp[0].ppp txPk:vector(packetBytes) ETV
attr interpolationmode none
attr source packetSentToLower
attr title "packets transmitted, vector(packetBytes)"
vector 353 Crocetta.gNodeB14.x2ppp[1].ppp rcvdPkFromHl:vector(packetBytes) ETV
attr interpolationmode none
attr source packetReceivedFromUpper
attr title "packets received from higher layer, vector(packetBytes)"
vector 354 Crocetta.gNodeB14.x2ppp[1].ppp.queue packetPushed:vector(packetBytes) ETV
attr interpolationmode none
attr title "packet pushed, vector(packetBytes)"
vector 355 Crocetta.gNodeB14.x2ppp[1].ppp.queue queueLength:vector ETV
attr autoWarmupFilter false
attr interpolationmode sample-hold
attr source "warmup(count(packetPushed) - count(packetPulled) - count(packetRemoved) - count(packetDropped))"
attr title "queue length, vector"
attr type int
vector 356 Crocetta.gNodeB14.x2ppp[1].ppp.queue packetPulled:vector(packetBytes) ETV
attr interpolationmode none
attr title "packet pulled, vector(packetBytes)"
vector 357 Crocetta.gNodeB14.x2ppp[1].ppp.queue queueingTime:vector ETV
attr interpolationmode none
attr source queueingTime(packetPulled)
attr title "queueing times, vector"
attr unit s
vector 358 Crocetta.gNodeB14.x2ppp[1].ppp txPk:vector(packetBytes) ETV
attr interpolationmode none
attr source packetSentToLower
attr title "packets transmitted, vector(packetBytes)"
vector 359 Crocetta.gNodeB15.x2ppp[0].ppp rcvdPkFromHl:vector(packetBytes) ETV
attr interpolationmode none
attr source packetReceivedFromUpper
attr title "packets received from higher layer, vector(packetBytes)"
vector 360 Crocetta.gNodeB15.x2ppp[0].ppp.queue packetPushed:vector(packetBytes) ETV
attr interpolationmode none
attr title "packet pushed, vector(packetBytes)"
vector 361 Crocetta.gNodeB15.x2ppp[0].ppp.queue queueLength:vector ETV
attr autoWarmupFilter false
attr interpolationmode sample-hold
attr source "warmup(count(packetPushed) - count(packetPulled) - count(packetRemoved) - count(packetDropped))"
attr title "queue length, vector"
attr type int
vector 362 Crocetta.gNodeB15.x2ppp[0].ppp.queue packetPulled:vector(packetBytes) ETV
attr interpolationmode none
attr title "packet pulled, vector(packetBytes)"
vector 363 Crocetta.gNodeB15.x2ppp[0].ppp.queue queueingTime:vector ETV
attr interpolationmode none
attr source queueingTime(packetPulled)
attr title "queueing times, vector"
attr unit s
vector 364 Crocetta.gNodeB15.x2ppp[0].ppp txPk:vector(packetBytes) ETV
attr interpolationmode none
attr source packetSentToLower
attr title "packets transmitted, vector(packetBytes)"
vector 365 Crocetta.gNodeB15.x2ppp[1].ppp rcvdPkFromHl:vector(packetBytes) ETV
attr interpolationmode none
attr source packetReceivedFromUpper
attr title "packets received from higher layer, vector(packetBytes)"
vector 366 Crocetta.gNodeB15.x2ppp[1].ppp.queue packetPushed:vector(packetBytes) ETV
attr interpolationmode none
attr title "packet pushed, vector(packetBytes)"
vector 367 Crocetta.gNodeB15.x2ppp[1].ppp.queue queueLength:vector ETV
attr autoWarmupFilter false
attr interpolationmode sample-hold
attr source "warmup(count(packetPushed) - count(packetPulled) - count(packetRemoved) - count(packetDropped))"
attr title "queue length, vector"
attr type int
vector 368 Crocetta.gNodeB15.x2ppp[1].ppp.queue packetPulled:vector(packetBytes) ETV
attr interpolationmode none
attr title "packet pulled, vector(packetBytes)"
vector 369 Crocetta.gNodeB15.x2ppp[1].ppp.queue queueingTime:vector ETV
attr interpolationmode none
attr source queueingTime(packetPulled)
attr title "queueing times, vector"
attr unit s
vector 370 Crocetta.gNodeB15.x2ppp[1].ppp txPk:vector(packetBytes) ETV
attr interpolationmode none
attr source packetSentToLower
attr title "packets transmitted, vector(packetBytes)"
vector 371 Crocetta.gNodeB16.x2ppp[0].ppp rcvdPkFromHl:vector(packetBytes) ETV
attr interpolationmode none
attr source packetReceivedFromUpper
attr title "packets received from higher layer, vector(packetBytes)"
vector 372 Crocetta.gNodeB16.x2ppp[0].ppp.queue packetPushed:vector(packetBytes) ETV
attr interpolationmode none
attr title "packet pushed, vector(packetBytes)"
vector 373 Crocetta.gNodeB16.x2ppp[0].ppp.queue queueLength:vector ETV
attr autoWarmupFilter false
attr interpolationmode sample-hold
attr source "warmup(count(packetPushed) - count(packetPulled) - count(packetRemoved) - count(packetDropped))"
attr title "queue length, vector"
attr type int
vector 374 Crocetta.gNodeB16.x2ppp[0].ppp.queue packetPulled:vector(packetBytes) ETV
attr interpolationmode none
attr title "packet pulled, vector(packetBytes)"
vector 375 Crocetta.gNodeB16.x2ppp[0].ppp.queue queueingTime:vector ETV
attr interpolationmode none
attr source queueingTime(packetPulled)
attr title "queueing times, vector"
attr unit s
vector 376 Crocetta.gNodeB16.x2ppp[0].ppp txPk:vector(packetBytes) ETV
attr interpolationmode none
attr source packetSentToLower
attr title "packets transmitted, vector(packetBytes)"
vector 377 Crocetta.gNodeB16.x2ppp[1].ppp rcvdPkFromHl:vector(packetBytes) ETV
attr interpolationmode none
attr source packetReceivedFromUpper
attr title "packets received from higher layer, vector(packetBytes)"
vector 378 Crocetta.gNodeB16.x2ppp[1].ppp.queue packetPushed:vector(packetBytes) ETV
attr interpolationmode none
attr title "packet pushed, vector(packetBytes)"
vector 379 Crocetta.gNodeB16.x2ppp[1].ppp.queue queueLength:vector ETV
attr autoWarmupFilter false
attr interpolationmode sample-hold
attr source "warmup(count(packetPushed) - count(packetPulled) - count(packetRemoved) - count(packetDropped))"
attr title "queue length, vector"
attr type int
vector 380 Crocetta.gNodeB16.x2ppp[1].ppp.queue packetPulled:vector(packetBytes) ETV
attr interpolationmode none
attr title "packet pulled, vector(packetBytes)"
vector 381 Crocetta.gNodeB16.x2ppp[1].ppp.queue queueingTime:vector ETV
attr interpolationmode none
attr source queueingTime(packetPulled)
attr title "queueing times, vector"
attr unit s
vector 382 Crocetta.gNodeB16.x2ppp[1].ppp txPk:vector(packetBytes) ETV
attr interpolationmode none
attr source packetSentToLower
attr title "packets transmitted, vector(packetBytes)"
vector 383 Crocetta.gNodeB17.x2ppp[0].ppp rcvdPkFromHl:vector(packetBytes) ETV
attr interpolationmode none
attr source packetReceivedFromUpper
attr title "packets received from higher layer, vector(packetBytes)"
vector 384 Crocetta.gNodeB17.x2ppp[0].ppp.queue packetPushed:vector(packetBytes) ETV
attr interpolationmode none
attr title "packet pushed, vector(packetBytes)"
vector 385 Crocetta.gNodeB17.x2ppp[0].ppp.queue queueLength:vector ETV
attr autoWarmupFilter false
attr interpolationmode sample-hold
attr source "warmup(count(packetPushed) - count(packetPulled) - count(packetRemoved) - count(packetDropped))"
attr title "queue length, vector"
attr type int
vector 386 Crocetta.gNodeB17.x2ppp[0].ppp.queue packetPulled:vector(packetBytes) ETV
attr interpolationmode none
attr title "packet pulled, vector(packetBytes)"
vector 387 Crocetta.gNodeB17.x2ppp[0].ppp.queue queueingTime:vector ETV
attr interpolationmode none
attr source queueingTime(packetPulled)
attr title "queueing times, vector"
attr unit s
vector 388 Crocetta.gNodeB17.x2ppp[0].ppp txPk:vector(packetBytes) ETV
attr interpolationmode none
attr source packetSentToLower
attr title "packets transmitted, vector(packetBytes)"
vector 389 Crocetta.gNodeB17.x2ppp[1].ppp rcvdPkFromHl:vector(packetBytes) ETV
attr interpolationmode none
attr source packetReceivedFromUpper
attr title "packets received from higher layer, vector(packetBytes)"
vector 390 Crocetta.gNodeB17.x2ppp[1].ppp.queue packetPushed:vector(packetBytes) ETV
attr interpolationmode none
attr title "packet pushed, vector(packetBytes)"
vector 391 Crocetta.gNodeB17.x2ppp[1].ppp.queue queueLength:vector ETV
attr autoWarmupFilter false
attr interpolationmode sample-hold
attr source "warmup(count(packetPushed) - count(packetPulled) - count(packetRemoved) - count(packetDropped))"
attr title "queue length, vector"
attr type int
vector 392 Crocetta.gNodeB17.x2ppp[1].ppp.queue packetPulled:vector(packetBytes) ETV
attr interpolationmode none
attr title "packet pulled, vector(packetBytes)"
vector 393 Crocetta.gNodeB17.x2ppp[1].ppp.queue queueingTime:vector ETV
attr interpolationmode none
attr source queueingTime(packetPulled)
attr title "queueing times, vector"
attr unit s
vector 394 Crocetta.gNodeB17.x2ppp[1].ppp txPk:vector(packetBytes) ETV
attr interpolationmode none
attr source packetSentToLower
attr title "packets transmitted, vector(packetBytes)"
vector 395 Crocetta.gNodeB2.x2ppp[0].ppp rxPkOk:vector(packetBytes) ETV
attr interpolationmode none
attr source rxPkOk
attr title "packets received OK, vector(packetBytes)"
vector 396 Crocetta.gNodeB2.x2ppp[0].ppp passedUpPk:vector(packetBytes) ETV
attr interpolationmode none
attr source packetSentToUpper
attr title "packets passed to higher layer, vector(packetBytes)"
vector 397 Crocetta.gNodeB17.x2ppp[1].ppp rxPkOk:vector(packetBytes) ETV
attr interpolationmode none
attr source rxPkOk
attr title "packets received OK, vector(packetBytes)"
vector 398 Crocetta.gNodeB17.x2ppp[1].ppp passedUpPk:vector(packetBytes) ETV
attr interpolationmode none
attr source packetSentToUpper
attr title "packets passed to higher layer, vector(packetBytes)"
vector 399 Crocetta.gNodeB1.x2ppp[0].ppp rxPkOk:vector(packetBytes) ETV
attr interpolationmode none
attr source rxPkOk
attr title "packets received OK, vector(packetBytes)"
vector 400 Crocetta.gNodeB1.x2ppp[0].ppp passedUpPk:vector(packetBytes) ETV
attr interpolationmode none
attr source packetSentToUpper
attr title "packets passed to higher layer, vector(packetBytes)"
vector 401 Crocetta.gNodeB3.x2ppp[0].ppp rxPkOk:vector(packetBytes) ETV
attr interpolationmode none
attr source rxPkOk
attr title "packets received OK, vector(packetBytes)"
vector 402 Crocetta.gNodeB3.x2ppp[0].ppp passedUpPk:vector(packetBytes) ETV
attr interpolationmode none
attr source packetSentToUpper
attr title "packets passed to higher layer, vector(packetBytes)"
vector 403 Crocetta.gNodeB2.x2ppp[1].ppp rxPkOk:vector(packetBytes) ETV
attr interpolationmode none
attr source rxPkOk
attr title "packets received OK, vector(packetBytes)"
vector 404 Crocetta.gNodeB2.x2ppp[1].ppp passedUpPk:vector(packetBytes) ETV
attr interpolationmode none
attr source packetSentToUpper
attr title "packets passed to higher layer, vector(packetBytes)"
vector 405 Crocetta.gNodeB4.x2ppp[0].ppp rxPkOk:vector(packetBytes) ETV
attr interpolationmode none
attr source rxPkOk
attr title "packets received OK, vector(packetBytes)"
vector 406 Crocetta.gNodeB4.x2ppp[0].ppp passedUpPk:vector(packetBytes) ETV
attr interpolationmode none
attr source packetSentToUpper
attr title "packets passed to higher layer, vector(packetBytes)"
vector 407 Crocetta.gNodeB3.x2ppp[1].ppp rxPkOk:vector(packetBytes) ETV
attr interpolationmode none
attr source rxPkOk
attr title "packets received OK, vector(packetBytes)"
vector 408 Crocetta.gNodeB3.x2ppp[1].ppp passedUpPk:vector(packetBytes) ETV
attr interpolationmode none
attr source packetSentToUpper
attr title "packets passed to higher layer, vector(packetBytes)"
vector 409 Crocetta.gNodeB5.x2ppp[0].ppp rxPkOk:vector(packetBytes) ETV
attr interpolationmode none
attr source rxPkOk
attr title "packets received OK, vector(packetBytes)"
vector 410 Crocetta.gNodeB5.x2ppp[0].ppp passedUpPk:vector(packetBytes) ETV
attr interpolationmode none
attr source packetSentToUpper
attr title "packets passed to higher layer, vector(packetBytes)"
vector 411 Crocetta.gNodeB4.x2ppp[1].ppp rxPkOk:vector(packetBytes) ETV
attr interpolationmode none
attr source rxPkOk
attr title "packets received OK, vector(packetBytes)"
vector 412 Crocetta.gNodeB4.x2ppp[1].ppp passedUpPk:vector(packetBytes) ETV
attr interpolationmode none
attr source packetSentToUpper
attr title "packets passed to higher layer, vector(packetBytes)"
vector 413 Crocetta.gNodeB6.x2ppp[0].ppp rxPkOk:vector(packetBytes) ETV
attr interpolationmode none
attr source rxPkOk
attr title "packets received OK, vector(packetBytes)"
vector 414 Crocetta.gNodeB6.x2ppp[0].ppp passedUpPk:vector(packetBytes) ETV
attr interpolationmode none
attr source packetSentToUpper
attr title "packets passed to higher layer, vector(packetBytes)"
vector 415 Crocetta.gNodeB5.x2ppp[1].ppp rxPkOk:vector(packetBytes) ETV
attr interpolationmode none
attr source rxPkOk
attr title "packets received OK, vector(packetBytes)"
vector 416 Crocetta.gNodeB5.x2ppp[1].ppp passedUpPk:vector(packetBytes) ETV
attr interpolationmode none
attr source packetSentToUpper
attr title "packets passed to higher layer, vector(packetBytes)"
vector 417 Crocetta.gNodeB7.x2ppp[0].ppp rxPkOk:vector(packetBytes) ETV
attr interpolationmode none
attr source rxPkOk
attr title "packets received OK, vector(packetBytes)"
vector 418 Crocetta.gNodeB7.x2ppp[0].ppp passedUpPk:vector(packetBytes) ETV
attr interpolationmode none
attr source packetSentToUpper
attr title "packets passed to higher layer, vector(packetBytes)"
vector 419 Crocetta.gNodeB6.x2ppp[1].ppp rxPkOk:vector(packetBytes) ETV
attr interpolationmode none
attr source rxPkOk
attr title "packets received OK, vector(packetBytes)"
vector 420 Crocetta.gNodeB6.x2ppp[1].ppp passedUpPk:vector(packetBytes) ETV
attr interpolationmode none
attr source packetSentToUpper
attr title "packets passed to higher layer, vector(packetBytes)"
vector 421 Crocetta.gNodeB8.x2ppp[0].ppp rxPkOk:vector(packetBytes) ETV
attr interpolationmode none
attr source rxPkOk
attr title "packets received OK, vector(packetBytes)"
vector 422 Crocetta.gNodeB8.x2ppp[0].ppp passedUpPk:vector(packetBytes) ETV
attr interpolationmode none
attr source packetSentToUpper
attr title "packets passed to higher layer, vector(packetBytes)"
vector 423 Crocetta.gNodeB7.x2ppp[1].ppp rxPkOk:vector(packetBytes) ETV
attr interpolationmode none
attr source rxPkOk
attr title "packets received OK, vector(packetBytes)"
vector 424 Crocetta.gNodeB7.x2ppp[1].ppp passedUpPk:vector(packetBytes) ETV
attr interpolationmode none
attr source packetSentToUpper
attr title "packets passed to higher layer, vector(packetBytes)"
vector 425 Crocetta.gNodeB9.x2ppp[0].ppp rxPkOk:vector(packetBytes) ETV
attr interpolationmode none
attr source rxPkOk
attr title "packets received OK, vector(packetBytes)"
vector 426 Crocetta.gNodeB9.x2ppp[0].ppp passedUpPk:vector(packetBytes) ETV
attr interpolationmode none
attr source packetSentToUpper
attr title "packets passed to higher layer, vector(packetBytes)"
vector 427 Crocetta.gNodeB8.x2ppp[1].ppp rxPkOk:vector(packetBytes) ETV
attr interpolationmode none
attr source rxPkOk
attr title "packets received OK, vector(packetBytes)"
vector 428 Crocetta.gNodeB8.x2ppp[1].ppp passedUpPk:vector(packetBytes) ETV
attr interpolationmode none
attr source packetSentToUpper
attr title "packets passed to higher layer, vector(packetBytes)"
vector 429 Crocetta.gNodeB10.x2ppp[0].ppp rxPkOk:vector(packetBytes) ETV
attr interpolationmode none
attr source rxPkOk
attr title "packets received OK, vector(packetBytes)"
vector 430 Crocetta.gNodeB10.x2ppp[0].ppp passedUpPk:vector(packetBytes) ETV
attr interpolationmode none
attr source packetSentToUpper
attr title "packets passed to higher layer, vector(packetBytes)"
vector 431 Crocetta.gNodeB9.x2ppp[1].ppp rxPkOk:vector(packetBytes) ETV
attr interpolationmode none
attr source rxPkOk
attr title "packets received OK, vector(packetBytes)"
vector 432 Crocetta.gNodeB9.x2ppp[1].ppp passedUpPk:vector(packetBytes) ETV
attr interpolationmode none
attr source packetSentToUpper
attr title "packets passed to higher layer, vector(packetBytes)"
vector 433 Crocetta.gNodeB11.x2ppp[0].ppp rxPkOk:vector(packetBytes) ETV
attr interpolationmode none
attr source rxPkOk
attr title "packets received OK, vector(packetBytes)"
vector 434 Crocetta.gNodeB11.x2ppp[0].ppp passedUpPk:vector(packetBytes) ETV
attr interpolationmode none
attr source packetSentToUpper
attr title "packets passed to higher layer, vector(packetBytes)"
vector 435 Crocetta.gNodeB10.x2ppp[1].ppp rxPkOk:vector(packetBytes) ETV
attr interpolationmode none
attr source rxPkOk
attr title "packets received OK, vector(packetBytes)"
vector 436 Crocetta.gNodeB10.x2ppp[1].ppp passedUpPk:vector(packetBytes) ETV
attr interpolationmode none
attr source packetSentToUpper
attr title "packets passed to higher layer, vector(packetBytes)"
vector 437 Crocetta.gNodeB12.x2ppp[0].ppp rxPkOk:vector(packetBytes) ETV
attr interpolationmode none
attr source rxPkOk
attr title "packets received OK, vector(packetBytes)"
vector 438 Crocetta.gNodeB12.x2ppp[0].ppp passedUpPk:vector(packetBytes) ETV
attr interpolationmode none
attr source packetSentToUpper
attr title "packets passed to higher layer, vector(packetBytes)"
vector 439 Crocetta.gNodeB11.x2ppp[1].ppp rxPkOk:vector(packetBytes) ETV
attr interpolationmode none
attr source rxPkOk
attr title "packets received OK, vector(packetBytes)"
vector 440 Crocetta.gNodeB11.x2ppp[1].ppp passedUpPk:vector(packetBytes) ETV
attr interpolationmode none
attr source packetSentToUpper
attr title "packets passed to higher layer, vector(packetBytes)"
vector 441 Crocetta.gNodeB13.x2ppp[0].ppp rxPkOk:vector(packetBytes) ETV
attr interpolationmode none
attr source rxPkOk
attr title "packets received OK, vector(packetBytes)"
vector 442 Crocetta.gNodeB13.x2ppp[0].ppp passedUpPk:vector(packetBytes) ETV
attr interpolationmode none
attr source packetSentToUpper
attr title "packets passed to higher layer, vector(packetBytes)"
vector 443 Crocetta.gNodeB12.x2ppp[1].ppp rxPkOk:vector(packetBytes) ETV
attr interpolationmode none
attr source rxPkOk
attr title "packets received OK, vector(packetBytes)"
vector 444 Crocetta.gNodeB12.x2ppp[1].ppp passedUpPk:vector(packetBytes) ETV
attr interpolationmode none
attr source packetSentToUpper
attr title "packets passed to higher layer, vector(packetBytes)"
vector 445 Crocetta.gNodeB14.x2ppp[0].ppp rxPkOk:vector(packetBytes) ETV
attr interpolationmode none
attr source rxPkOk
attr title "packets received OK, vector(packetBytes)"
vector 446 Crocetta.gNodeB14.x2ppp[0].ppp passedUpPk:vector(packetBytes) ETV
attr interpolationmode none
attr source packetSentToUpper
attr title "packets passed to higher layer, vector(packetBytes)"
vector 447 Crocetta.gNodeB13.x2ppp[1].ppp rxPkOk:vector(packetBytes) ETV
attr interpolationmode none
attr source rxPkOk
attr title "packets received OK, vector(packetBytes)"
vector 448 Crocetta.gNodeB13.x2ppp[1].ppp passedUpPk:vector(packetBytes) ETV
attr interpolationmode none
attr source packetSentToUpper
attr title "packets passed to higher layer, vector(packetBytes)"
vector 449 Crocetta.gNodeB15.x2ppp[0].ppp rxPkOk:vector(packetBytes) ETV
attr interpolationmode none
attr source rxPkOk
attr title "packets received OK, vector(packetBytes)"
vector 450 Crocetta.gNodeB15.x2ppp[0].ppp passedUpPk:vector(packetBytes) ETV
attr interpolationmode none
attr source packetSentToUpper
attr title "packets passed to higher layer, vector(packetBytes)"
vector 451 Crocetta.gNodeB14.x2ppp[1].ppp rxPkOk:vector(packetBytes) ETV
attr interpolationmode none
attr source rxPkOk
attr title "packets received OK, vector(packetBytes)"
vector 452 Crocetta.gNodeB14.x2ppp[1].ppp passedUpPk:vector(packetBytes) ETV
attr interpolationmode none
[...]
2719	17686459 28 695345 695345 13.2500102008 13.2500102008 1 0 0 0 0
2720	17686487 28 695345 695345 13.2500102008 13.2500102008 1 0 0 0 0
2721	17686515 28 695345 695345 13.2500102008 13.2500102008 1 0 0 0 0
2722	17686543 28 695345 695345 13.2500102008 13.2500102008 1 0 0 0 0
2723	17686571 28 695345 695345 13.2500102008 13.2500102008 1 0 0 0 0
2724	17686599 28 695345 695345 13.2500102008 13.2500102008 1 0 0 0 0
2725	17686627 28 695345 695345 13.2500102008 13.2500102008 1 0 0 0 0
2726	17686655 28 695345 695345 13.2500102008 13.2500102008 1 0 0 0 0
2727	17686683 32 695345 695345 13.2500102008 13.2500102008 1 65535 65535 65535 4294836225
2728	17686715 28 695345 695345 13.2500102008 13.2500102008 1 0 0 0 0
2729	17686743 28 695345 695345 13.2500102008 13.2500102008 1 0 0 0 0
2730	17686771 28 695345 695345 13.2500102008 13.2500102008 1 0 0 0 0
2731	17686799 48125 571183 937904 11.37 16.741 2289 1 141 30243 2072953
2732	17734924 24632 636155 937931 12.398 16.742 1173 1 1 1173 1173
2733	17759556 8573 636648 936912 12.405 16.728 390 9 139 27276 1939078
2734	17768129 8573 636651 936915 12.405 16.728 390 9 139 27276 1939078
2735	17776702 8446 636651 936915 12.405 16.728 384 69 69 26496 1828224
2736	17785148 8446 636652 936916 12.405 16.728 384 69 69 26496 1828224
2737	17793594 8446 636652 936916 12.405 16.728 384 68 68 26112 1775616
2738	17802040 8446 636656 936920 12.405 16.728 384 84 84 32256 2709504
2739	17810486 8830 636658 936922 12.405 16.728 384 104 104 39936 4153344
2740	17819316 8830 636658 936922 12.405 16.728 384 104 104 39936 4153344
2741	17828146 16132 636658 936922 12.405 16.728 768 0 1 384 384
2742	17844278 8838 636658 936922 12.405 16.728 384 104 104 39936 4153344
2743	17853116 8077 636658 936922 12.405 16.728 384 0 8.88e-08 8.88e-08 7.88544e-15
2744	17861193 8838 636658 936922 12.405 16.728 384 111 111 42624 4731264
2745	17870031 11520 636698 936966 12.4050001388 16.7280001388 384 111 111 42624 4731264
2746	17881551 11520 636698 936966 12.4050001388 16.7280001388 384 104 104 39936 4153344
2747	17893071 1476 636711 636711 12.4050003588 12.4050003588 36 0.008787173568 0.008787233568 0.316338308448 0.0027797201497741
2748	17894547 84 737885 820511 13.912 15.112 4 0 0 0 0
2751	17894631 4962 571113 936871 11.369987589475 16.727412861704 113 566.40343266174 731.51821622764 72864.389328312 47194986.726347
2752	17899593 3503 571114 936872 11.369987589475 16.727412861704 113 48 48 5424 260352
2753	17903096 3503 571117 936875 11.369987589475 16.727412861704 113 68 68 7684 522512
2754	17906599 3503 571117 936875 11.369987589475 16.727412861704 113 69 69 7797 537993
2755	17910102 3503 571118 936876 11.369987589475 16.727412861704 113 69 69 7797 537993
2756	17913605 6239 571120 937625 11.369987589475 16.738 238 9 71 16070 1128898
2757	17919844 5046 571126 937655 11.37 16.738 238 1 73 8410 592066
2758	17924890 31029 570907 937540 11.366 16.736 896 10.145699014356 32.134712721539 20614.690462831 496598.90276044
2759	17955919 30981 570907 937540 11.366 16.736 896 30.772621398041 49.198476884784 35911.372232495 1461413.8108721
2760	17986900 7567 571306 937604 11.372 16.737 362 1 1 362 362
2761	17994467 2623 571362 937621 11.374 16.738 125 1 1 125 125
2762	17997090 4996 571364 937937 11.374 16.742 238 0 0 0 0
2763	18002086 2736 571364 937623 11.374 16.738 125 9 71 8047 559265
2764	18004822 2724 571393 937656 11.374 16.738 125 6 14 1464 17656
2765	18007546 4343 571472 937737 11.375 16.739 125 11.186710348772 33.72468072346 2745.8976325321 63418.418560877
2766	18011889 3125 571597 937934 11.378 16.742 125 0.004 0.004 0.5 0.002
2767	18015014 2625 571600 937937 11.378 16.742 125 0 0 0 0
2768	18017639 3125 571600 937937 11.378 16.742 125 0.004 0.004 0.5 0.002
2769	18020764 2625 571600 937937 11.378 16.742 125 0 0 0 0
2770	18023389 2604 571723 937602 11.379 16.737 124 0 0 0 0
2771	18025993 2604 571723 937602 11.379 16.737 124 0 0 0 0
2772	18028597 2604 571723 937602 11.379 16.737 124 1 1 124 124
2773	18031201 3940 571600 937937 11.378 16.742 113 721.65582703463 1035.6976201587 100827.56177616 90664579.009631
2774	18035141 2373 571600 937937 11.378 16.742 113 0 0 0 0
2775	18037514 3842 571600 937937 11.378 16.742 113 0.008012410525 0.014587138296 0.998085622344 0.0092662658943127
2776	18041356 4688 571658 936531 11.3780003588 16.7220003588 112 4528.0364189964 5848.4988257551 577314.82434075 2989291973.7253
2777	18046044 9758 695666 888916 13.2550003588 16.0960003588 238 0.008012769325 0.054012769325 2.250756524726 0.025585841147993
2781	18055802 7378 571724 898290 11.38 16.215613147105 185 228.47100175747 614.22284249413 81132.145194808 37694647.371699
2782	18063180 5039 571727 898291 11.38 16.215613147105 185 48 48 8880 426240
2783	18068219 5039 571730 898294 11.38 16.215613147105 185 68 68 12580 855440
2784	18073258 5039 571730 898294 11.38 16.215613147105 185 69 69 12765 880785
2785	18078297 5039 571731 898295 11.38 16.215613147105 185 69 69 12765 880785
2786	18083336 8962 571733 898635 11.38 16.22 370 71 71 26270 1865170
2787	18092298 7746 571735 898667 11.38 16.22 371 1 73 13763 991379
2788	18100044 31136 571044 937678 11.368 16.738 896 21.338374202474 40.536799193955 29067.498084238 963154.6745502
2789	18131180 31056 571044 937678 11.368 16.738 896 40.020704560203 57.960824193953 44733.309857065 2253586.0776734
2790	18162236 11718 571112 899118 11.369 16.225 558 1 1 558 558
2791	18173954 3738 571997 898631 11.384 16.22 185 1 1 185 185
2792	18177692 7643 571003 898965 11.368 16.224 371 0 0 0 0
2793	18185335 3923 571999 898633 11.384 16.22 185 71 71 13135 932585
2794	18189258 3945 572031 898668 11.384 16.22 186 12 14 2531 34487
2795	18193203 6524 570849 898763 11.365 16.221 187 20.514204164524 43.915193228916 5786.1577042392 183588.09661606
2796	18199727 4648 571000 898962 11.368 16.224 186 0.004 0.01 0.75 0.00306
2797	18204375 3905 571003 898965 11.368 16.224 186 0 0 0 0
2798	18208280 4648 571003 898965 11.368 16.224 186 0.004 0.01 0.75 0.00306
2799	18212928 3905 571003 898965 11.368 16.224 186 0 0 0 0
2800	18216833 3906 571112 899118 11.369 16.225 186 0 1 1 1
2801	18220739 3927 571112 899118 11.369 16.225 187 0 1 1 1
2802	18224666 3906 571112 899118 11.369 16.225 186 1 2 187 189
2803	18228572 6471 571003 898965 11.368 16.224 186 109.25404644616 863.35059171598 97359.976787414 59313697.270989
2804	18235043 3905 571003 898965 11.368 16.224 186 0 0 0 0
2805	18238948 5702 571003 898965 11.368 16.224 186 0.008 0.014386852895 1.539261788715 0.012782340508177
2806	18244650 7790 571062 899051 11.3680003588 16.2240003588 186 1801.5481486281 4911.2424949363 650478.20836076 2412925600.5986
2807	18252440 21 897981 897981 16.211 16.211 1 0 0 0 0
2852	18252461 26614 570850 937679 11.365 16.738 1268 1 73 14732 997604
2853	18279075 11717 571000 898962 11.368 16.224 558 1 1 558 558
2854	18290792 4091 571000 898962 11.368 16.224 186 71 71 13206 937626
2855	18294883 4091 571003 898965 11.368 16.224 186 71 71 13206 937626
2856	18298974 4091 571003 898965 11.368 16.224 186 69 69 12834 885546
2857	18303065 4091 571004 898966 11.368 16.224 186 69 69 12834 885546
2858	18307156 4091 571004 898966 11.368 16.224 186 68 68 12648 860064
2859	18311247 4091 571008 898970 11.368 16.224 186 84 84 15624 1312416
2860	18315338 4277 571010 898972 11.368 16.224 186 104 104 19344 2011776
2861	18319615 4277 571010 898972 11.368 16.224 186 104 104 19344 2011776
2862	18323892 7810 571010 898972 11.368 16.224 372 0 1 186 186
2863	18331702 4277 571010 898972 11.368 16.224 186 104 104 19344 2011776
2864	18335979 3905 571010 898972 11.368 16.224 186 0 0 0 0
2865	18339884 4277 571010 898972 11.368 16.224 186 111 111 20646 2291706
2866	18344161 5580 571049 899029 11.3680001388 16.2240001388 186 111 111 20646 2291706
2867	18349741 5580 571049 899029 11.3680001388 16.2240001388 186 104 104 19344 2011776
2868	18355321 19 616242 616242 12.1 12.1 1 0 0 0 0
2869	18355340 42 616242 682090 12.1 13.05001 2 1 2 3 5
2870	18355382 7806 616250 937741 12.1 16.74 233 3.3057851239669 556.75029868578 72168.396857901 28270122.077516
2871	18363188 4838 616252 937746 12.1 16.74 233 48 48 11184 536832
2872	18368026 4844 616258 937752 12.1 16.74 233 68 68 15844 1077392
2873	18372870 4844 616258 937752 12.1 16.74 233 69 69 16077 1109313
2874	18377714 4844 616260 937754 12.1 16.74 233 69 69 16077 1109313
2875	18382558 10893 616263 937758 12.1 16.74 510 36 139 33105 2244151
2876	18393451 10660 616321 937766 12.101 16.74 510 1 141 17387 1138707
2877	18404111 26868 616436 937828 12.102 16.74 774 5.9423670346549 39.638528736646 20386.873973985 618418.74795078
2878	18430979 26835 616436 937828 12.102 16.74 774 23.613941561031 56.823213685029 32344.241249805 1431532.7730489
2879	18457814 16525 616510 937054 12.103 16.729 787 1 1 787 787
2880	18474339 5771 616596 936621 12.105 16.724 277 1 1 277 277
2881	18480110 11585 616598 936915 12.105 16.728 554 0 1 45 45
2882	18491695 6049 616598 936623 12.105 16.724 277 36 139 16562 1069598
2883	18497744 5977 616631 936658 12.105 16.724 278 4 14 2947 35899
2884	18503721 9706 616714 936743 12.106 16.725 278 2.9153243981467 41.480346369026 6257.6266937113 177622.51327471
2885	18513427 6922 616866 936912 12.109 16.728 277 0.004 0.01 1.114 0.004516
2886	18520349 5815 616870 936915 12.109 16.728 277 0 0 0 0
2887	18526164 6922 616870 936915 12.109 16.728 277 0.004 0.01 1.114 0.004516
2888	18533086 5815 616870 936915 12.109 16.728 277 0 0 0 0
2889	18538901 5816 616980 937054 12.11 16.729 277 0 1 1 1
2890	18544717 5837 616980 937054 12.11 16.729 278 0 1 1 1
2891	18550554 5816 616980 937054 12.11 16.729 277 1 2 278 280
2892	18556370 8068 617262 936915 12.115 16.728 232 5.2816901408451 767.21664275466 83572.452203568 42459818.327699
2893	18564438 5814 617262 936915 12.115 16.728 277 0 1 45 45
2894	18570252 5794 617262 936915 12.115 16.728 232 0.008 0.044 2.199 0.023897
2895	18576046 9714 617319 936992 12.1150003588 16.7280004188 232 26.413536155413 4438.06779898 572569.70571862 1787558853.5742
2896	18585760 21 624361 624361 12.221 12.221 1 0 0 0 0
2897	18585781 5148 737332 737332 13.9040003588 13.9040003588 132 0.0080003588 0.0440003588 1.3990474816 0.017498006339494
2898	18590929 19 750824 750824 14.1 14.1 1 0 0 0 0
2899	18590948 43 750824 816401 14.1 15.05001 2 1 10 11 101
2900	18590991 1208 750832 937201 14.1 16.731608062701 28 2.8368794326241 66.939172600915 1020.5663668179 46868.848837486
2901	18592199 847 750834 937202 14.1 16.731608062701 28 48 48 1344 64512
2902	18593046 847 750840 937205 14.1 16.731608062701 28 68 68 1904 129472
2903	18593893 847 750840 937205 14.1 16.731608062701 28 69 69 1932 133308
2904	18594740 847 750842 937206 14.1 16.731608062701 28 69 69 1932 133308
2905	18595587 1777 750845 937482 14.1 16.736 71 9 71 4006 269336
2906	18597364 1532 750913 937519 14.101 16.736 71 1 73 2132 136460
2907	18598896 15279 751035 937542 14.102 16.736 440 12.557920378161 33.937793741869 9857.854959492 244017.29750964
2908	18614175 15250 751035 937542 14.102 16.736 440 30.973108242956 51.897476306159 17395.084187015 707558.74919103
2909	18629425 2389 751119 937907 14.103 16.741 114 1 1 114 114
2910	18631814 902 751219 937478 14.105 16.736 43 1 1 43 43
2911	18632716 1740 751221 937792 14.105 16.74 85 0 1 14 14
2912	18634456 930 751221 937480 14.105 16.736 43 9 71 2018 128188
2913	18635386 915 751259 937520 14.105 16.736 43 7 14 396 3806
2914	18636301 1501 751348 937607 14.106 16.737 43 7.7744251121282 34.466453736443 909.8967575647 19906.995698387
2915	18637802 1059 751543 937789 14.109 16.74 43 0.004 0.004 0.172 0.000688
2916	18638861 887 751547 937792 14.109 16.74 43 0 0 0 0
2917	18639748 1059 751547 937792 14.109 16.74 43 0.004 0.004 0.172 0.000688
2918	18640807 887 751547 937792 14.109 16.74 43 0 0 0 0
2919	18641694 899 751641 937907 14.11 16.741 43 0 0 0 0
2920	18642593 899 751641 937907 14.11 16.741 43 0 0 0 0
2921	18643492 899 751641 937907 14.11 16.741 43 1 1 43 43
2922	18644391 960 751962 937792 14.115 16.74 28 4.1818181818182 70.365082602488 949.7098598875 42045.988254008
2923	18645351 838 751962 937792 14.115 16.74 42 0 1 14 14
2924	18646189 918 751962 937792 14.115 16.74 28 0.008391937299 0.015 0.33052030568 0.0041851483903245
2925	18647107 1170 752020 937844 14.1150003588 16.7400003588 28 22.670916887402 535.24491086942 8159.0400942272 2995966.8200657
2926	18648277 611 760022 919857 14.2280003588 16.5000003588 15 0.0140003588 0.0150003588 0.221430502793 0.0032697873357277
2927	18648888 46 816404 816404 15.05001 15.05001 2 0 1 1 1
2928	18648934 26 816404 816404 15.05001 15.05001 1 2000 2000 2000 4000000
2929	18648960 52 816404 816422 15.05001 15.0500102008 2 0 15 15 225
2930	18649012 52 816404 816422 15.05001 15.0500102008 2 0 15 15 225
2931	18649064 52 816404 816422 15.05001 15.0500102008 2 0 15 15 225
2932	18649116 52 816404 816422 15.05001 15.0500102008 2 0 15 15 225
2933	18649168 31 816411 816411 15.0500101068 15.0500101068 1 2000 2000 2000 4000000
2934	18649199 28 816411 816411 15.0500101068 15.0500101068 1 0 0 0 0
2935	18649227 58 816411 816414 15.0500101068 15.0500101068 2 15 15 30 450
2936	18649285 32 816411 816411 15.0500101068 15.0500101068 1 65520 65520 65520 4292870400
2937	18649317 28 816411 816411 15.0500101068 15.0500101068 1 0 0 0 0
2938	18649345 28 816411 816411 15.0500101068 15.0500101068 1 0 0 0 0
2939	18649373 28 816411 816411 15.0500101068 15.0500101068 1 0 0 0 0
2940	18649401 28 816411 816411 15.0500101068 15.0500101068 1 0 0 0 0
2941	18649429 29 816411 816411 15.0500101068 15.0500101068 1 16 16 16 256
2942	18649458 28 816411 816411 15.0500101068 15.0500101068 1 0 0 0 0
2943	18649486 28 816411 816411 15.0500101068 15.0500101068 1 0 0 0 0
2944	18649514 28 816411 816411 15.0500101068 15.0500101068 1 0 0 0 0
2945	18649542 36 816414 816414 15.0500101068 15.0500101068 1 1.068e-07 1.068e-07 1.068e-07 1.140624e-14
2946	18649578 29 816416 816416 15.0500101068 15.0500101068 1 15 15 15 225
2947	18649607 28 816422 816422 15.0500102008 15.0500102008 1 0 0 0 0
2948	18649635 28 816422 816422 15.0500102008 15.0500102008 1 0 0 0 0
2949	18649663 28 816422 816422 15.0500102008 15.0500102008 1 0 0 0 0
2950	18649691 31 816422 816422 15.0500102008 15.0500102008 1 2000 2000 2000 4000000
2951	18649722 36 816422 816422 15.0500102008 15.0500102008 1 2.008e-07 2.008e-07 2.008e-07 4.032064e-14
2952	18649758 28 816422 816422 15.0500102008 15.0500102008 1 0 0 0 0
2953	18649786 28 816422 816422 15.0500102008 15.0500102008 1 0 0 0 0
2954	18649814 28 816422 816422 15.0500102008 15.0500102008 1 0 0 0 0
2955	18649842 28 816422 816422 15.0500102008 15.0500102008 1 0 0 0 0
2956	18649870 28 816422 816422 15.0500102008 15.0500102008 1 0 0 0 0
2957	18649898 28 816422 816422 15.0500102008 15.0500102008 1 0 0 0 0
2958	18649926 28 816422 816422 15.0500102008 15.0500102008 1 0 0 0 0
2959	18649954 28 816422 816422 15.0500102008 15.0500102008 1 0 0 0 0
2960	18649982 28 816422 816422 15.0500102008 15.0500102008 1 0 0 0 0
2961	18650010 28 816422 816422 15.0500102008 15.0500102008 1 0 0 0 0
2962	18650038 28 816422 816422 15.0500102008 15.0500102008 1 0 0 0 0
2963	18650066 28 816422 816422 15.0500102008 15.0500102008 1 0 0 0 0
2964	18650094 28 816422 816422 15.0500102008 15.0500102008 1 0 0 0 0
2965	18650122 28 816422 816422 15.0500102008 15.0500102008 1 0 0 0 0
2966	18650150 28 816422 816422 15.0500102008 15.0500102008 1 0 0 0 0
2967	18650178 32 816422 816422 15.0500102008 15.0500102008 1 65520 65520 65520 4292870400
2968	18650210 28 816422 816422 15.0500102008 15.0500102008 1 0 0 0 0
2969	18650238 28 816422 816422 15.0500102008 15.0500102008 1 0 0 0 0
2970	18650266 28 816422 816422 15.0500102008 15.0500102008 1 0 0 0 0
2971	18650294 6398 816790 937608 15.056 16.737 307 1 73 1243 69571
2972	18656692 19 889125 889125 16.1 16.1 1 0 0 0 0
2973	18656711 19 889125 889125 16.1 16.1 1 1 1 1 1
2974	18656730 1115 889133 937742 16.1 16.74 33 2.4844720496894 78.853046594982 1357.9299922485 72915.961920938
2975	18657845 686 889135 937747 16.1 16.74 33 48 48 1584 76032
2976	18658531 686 889141 937753 16.1 16.74 33 68 68 2244 152592
2977	18659217 686 889141 937753 16.1 16.74 33 69 69 2277 157113
2978	18659903 686 889143 937755 16.1 16.74 33 69 69 2277 157113
2979	18660589 1390 889146 937759 16.1 16.74 65 71 71 4615 327665
2980	18661979 1401 889222 937761 16.101 16.74 67 1 73 2515 181219
2981	18663380 3704 889357 937680 16.102 16.738 107 20.581993997443 23.773978086676 2522.7893126799 59508.86774498
2982	18667084 3687 889357 937680 16.102 16.738 107 37.003991139141 39.98392200477 4268.193049466 170278.07936182
2983	18670771 2099 889451 937052 16.103 16.729 100 1 1 100 100
2984	18672870 672 889578 936613 16.105 16.724 32 1 1 32 32
2985	18673542 1344 889580 936904 16.105 16.728 64 0 0 0 0
2986	18674886 704 889580 936615 16.105 16.724 32 71 71 2272 161312
2987	18675590 746 889628 936656 16.105 16.724 34 11 12 407 4873
2988	18676336 1185 889734 936741 16.106 16.725 34 7.7943657697957 28.43781791384 871.01341638861 23111.93819129
2989	18677521 798 889915 936901 16.109 16.728 32 0.004 0.01 0.14 0.00068
2990	18678319 672 889918 936904 16.109 16.728 32 0 0 0 0
2991	18678991 798 889918 936904 16.109 16.728 32 0.004 0.01 0.14 0.00068
2992	18679789 1118 889918 936904 16.109 16.728 32 4.2833198832951 131.99426111908 2205.2834785814 198264.8925876
2993	18680907 672 889918 936904 16.109 16.728 32 0 0 0 0
2994	18681579 800 889918 936904 16.109 16.728 32 0.008 0.014 0.269 0.002329
2995	18682379 672 889918 936904 16.109 16.728 32 0 0 0 0
2996	18683051 1336 889978 936987 16.1090003588 16.7280003588 32 19.864671480077 612.14728481358 10227.401417653 4264298.2822709
2997	18684387 671 890042 937052 16.11 16.729 32 0 1 2 2
2998	18685058 713 890042 937052 16.11 16.729 34 0 1 2 2
2999	18685771 671 890042 937052 16.11 16.729 32 1 2 34 38
3000	18686442 42 898281 935981 16.215 16.715 2 0 0 0 0
3001	18686484 803 919313 937789 16.493 16.74 39 1 1 39 39
3002	18687287 270 919800 937789 16.5 16.74 13 71 71 923 65533
3003	18687557 270 919803 937792 16.5 16.74 13 71 71 923 65533
3004	18687827 270 919803 937792 16.5 16.74 13 69 69 897 61893
3005	18688097 270 919804 937793 16.5 16.74 13 69 69 897 61893
3006	18688367 270 919804 937793 16.5 16.74 13 68 68 884 60112
3007	18688637 270 919808 937797 16.5 16.74 13 84 84 1092 91728
3008	18688907 283 919810 937799 16.5 16.74 13 104 104 1352 140608
3009	18689190 283 919810 937799 16.5 16.74 13 104 104 1352 140608
3010	18689473 514 919810 937799 16.5 16.74 26 0 1 13 13
3011	18689987 283 919810 937799 16.5 16.74 13 104 104 1352 140608
3012	18690270 257 919810 937799 16.5 16.74 13 0 0 0 0
3013	18690527 283 919810 937799 16.5 16.74 13 111 111 1443 160173
3014	18690810 390 919844 937831 16.5000001388 16.7400001388 13 111 111 1443 160173
3015	18691200 390 919844 937831 16.5000001388 16.7400001388 13 104 104 1352 140608
vector 3016 Crocetta.server.app[6] voIPFrameDelay:vector ETV
attr source voIPFrameDelay
attr title "VoIP Frame Delay, vector"
attr unit s
vector 3017 Crocetta.server.app[8] voIPFrameDelay:vector ETV
attr source voIPFrameDelay
attr title "VoIP Frame Delay, vector"
attr unit s
2595	18691866 2278 937984 937984 16.742 16.742 67 0.008386559654 0.008386619654 0.561900156818 0.0047124147199151
2596	18694144 4590 937984 937984 16.742 16.742 135 0.008609524238 0.014609524238 1.17428637213 0.010285366439813
2597	18698734 34 937984 937984 16.742 16.742 1 0.008748531163 0.008748531163 0.008748531163 7.6536797509982e-05
2747	18698768 6732 937984 937984 16.742 16.742 198 0.008140357859 0.014140357859 1.677790856082 0.014591081599759
2777	18705500 1088 937984 937984 16.742 16.742 32 0.008587497096 0.014587497096 0.340799907072 0.0038893930206339
2897	18706588 3978 937984 937984 16.742 16.742 117 0.008387211695 0.014387211695 0.987303768315 0.0083670489822992
2926	18710566 442 937984 937984 16.742 16.742 13 0.008392296099 0.008392296099 0.109099849287 0.00091559823957278
3016	18711008 7424 937984 937984 16.742 16.742 232 0.0080003588 0.0440003588 2.1990857016 0.023898617874187
3017	18718432 1024 937984 937984 16.742 16.742 32 0.0080003588 0.0140003588 0.2690114816 0.0023291930385196

