version 3
run VoIP-UL-0-20220204-09:54:43-6994
attr configname VoIP-UL
attr datetime 20220204-09:54:43
attr datetimef 20220204-095443
attr experiment VoIP-UL
attr inifile omnetpp.ini
attr iterationvars ""
attr iterationvarsd ""
attr iterationvarsf ""
attr measurement ""
attr network mapcrocetta.utils.Crocetta
attr processid 6994
attr repetition 0
attr replication #0
attr resultdir results
attr runnumber 0
attr seedset 0
config image-path ../../../inet/images:../../../simu5g/images:../../../veins/subprojects/veins_inet/images:../../../veins/images
config *.server.numApps 100
config *.server.app[*].typename VoIPReceiver
config *.server.app[*].localPort "3000 + ancestorIndex(0)"
config *.car[*].numApps 1
config *.car[*].app[0].typename VoIPSender
config *.car[*].app[0].destAddress "\"server\""
config *.car[*].app[0].destPort "3000 + ancestorIndex(1)"
config cmdenv-express-mode true
config cmdenv-autoflush true
config cmdenv-status-frequency 1s
config **.cmdenv-log-level info
config image-path ../../images
config network mapcrocetta.utils.Crocetta
config debug-on-errors false
config print-undisposed false
config sim-time-limit 3600s
config **.sctp.**.scalar-recording true
config **.sctp.**.vector-recording true
config **.routingRecorder.enabled false
config *.playgroundSizeX 5000m
config *.playgroundSizeY 5000m
config *.playgroundSizeZ 50m
config *.veinsManager.host "\"localhost\""
config *.veinsManager.moduleType "\"simu5g.nodes.cars.NRCar\""
config *.veinsManager.moduleName "\"car\""
config *.veinsManager.launchConfig "xmldoc(\"map.launchd.xml\")"
config *.veinsManager.updateInterval 0.1s
config *.car[*].mobilityType "\"VeinsInetMobility\""
config **.numBands 25
config **.ueTxPower 26
config **.eNodeBTxPower 46
config *.car[*].cellularNic.nrPhy.dynamicCellAssociation true
config *.car[*].masterId 0
config *.car[*].macCellId 0
config *.car[*].nrMasterId 1
config *.car[*].nrMacCellId 1
config **.gNodeB1.macCellId 1
config **.gNodeB1.macNodeId 1
config **.gNodeB2.macCellId 2
config **.gNodeB2.macNodeId 2
config **.gNodeB3.macCellId 3
config **.gNodeB3.macNodeId 3
config **.gNodeB4.macCellId 4
config **.gNodeB4.macNodeId 4
config **.gNodeB5.macCellId 5
config **.gNodeB5.macNodeId 5
config **.gNodeB6.macCellId 6
config **.gNodeB6.macNodeId 6
config **.gNodeB7.macCellId 7
config **.gNodeB7.macNodeId 7
config **.gNodeB8.macCellId 8
config **.gNodeB8.macNodeId 8
config **.gNodeB9.macCellId 9
config **.gNodeB9.macNodeId 9
config **.gNodeB10.macCellId 10
config **.gNodeB10.macNodeId 10
config **.gNodeB11.macCellId 11
config **.gNodeB11.macNodeId 11
config **.gNodeB12.macCellId 12
config **.gNodeB12.macNodeId 12
config **.gNodeB13.macCellId 13
config **.gNodeB13.macNodeId 13
config **.gNodeB14.macCellId 14
config **.gNodeB14.macNodeId 14
config **.gNodeB15.macCellId 15
config **.gNodeB15.macNodeId 15
config **.gNodeB16.macCellId 16
config **.gNodeB16.macNodeId 16
config **.gNodeB17.macCellId 16
config **.gNodeB17.macNodeId 16
config *.car[*].cellularNic.nrPhy.enableHandover true
config *.gNodeB*.cellularNic.phy.enableHandover true
config *.gNodeB*.cellularNic.phy.handoverLatency 10ms
config *.gNodeB*.cellInfo.broadcastMessageInterval 1s
config *.gNodeB1.numX2Apps 2
config *.gNodeB2.numX2Apps 2
config *.gNodeB3.numX2Apps 2
config *.gNodeB4.numX2Apps 2
config *.gNodeB5.numX2Apps 2
config *.gNodeB6.numX2Apps 2
config *.gNodeB7.numX2Apps 2
config *.gNodeB8.numX2Apps 2
config *.gNodeB9.numX2Apps 2
config *.gNodeB10.numX2Apps 2
config *.gNodeB11.numX2Apps 2
config *.gNodeB12.numX2Apps 2
config *.gNodeB13.numX2Apps 2
config *.gNodeB14.numX2Apps 2
config *.gNodeB15.numX2Apps 2
config *.gNodeB16.numX2Apps 2
config *.gNodeB17.numX2Apps 2
config *.gNodeB*.x2App[*].server.localPort "5000 + ancestorIndex(1)"
config *.gNodeB1.x2App[0].client.connectAddress "\"gNodeB2%x2ppp0\""
config *.gNodeB1.x2App[1].client.connectAddress "\"gNodeB17%x2ppp0\""
config *.gNodeB2.x2App[0].client.connectAddress "\"gNodeB1%x2ppp0\""
config *.gNodeB2.x2App[1].client.connectAddress "\"gNodeB3%x2ppp0\""
config *.gNodeB3.x2App[0].client.connectAddress "\"gNodeB2%x2ppp0\""
config *.gNodeB3.x2App[1].client.connectAddress "\"gNodeB4%x2ppp0\""
config *.gNodeB4.x2App[0].client.connectAddress "\"gNodeB3%x2ppp0\""
config *.gNodeB4.x2App[1].client.connectAddress "\"gNodeB5%x2ppp0\""
config *.gNodeB5.x2App[0].client.connectAddress "\"gNodeB4%x2ppp0\""
config *.gNodeB5.x2App[1].client.connectAddress "\"gNodeB6%x2ppp0\""
config *.gNodeB6.x2App[0].client.connectAddress "\"gNodeB5%x2ppp0\""
config *.gNodeB6.x2App[1].client.connectAddress "\"gNodeB7%x2ppp0\""
config *.gNodeB7.x2App[0].client.connectAddress "\"gNodeB6%x2ppp0\""
config *.gNodeB7.x2App[1].client.connectAddress "\"gNodeB8%x2ppp0\""
config *.gNodeB8.x2App[0].client.connectAddress "\"gNodeB7%x2ppp0\""
config *.gNodeB8.x2App[1].client.connectAddress "\"gNodeB9%x2ppp0\""
config *.gNodeB9.x2App[0].client.connectAddress "\"gNodeB8%x2ppp0\""
config *.gNodeB9.x2App[1].client.connectAddress "\"gNodeB10%x2ppp0\""
config *.gNodeB10.x2App[0].client.connectAddress "\"gNodeB9%x2ppp0\""
config *.gNodeB10.x2App[1].client.connectAddress "\"gNodeB11%x2ppp0\""
config *.gNodeB11.x2App[0].client.connectAddress "\"gNodeB10%x2ppp0\""
config *.gNodeB11.x2App[1].client.connectAddress "\"gNodeB12%x2ppp0\""
config *.gNodeB12.x2App[0].client.connectAddress "\"gNodeB11%x2ppp0\""
config *.gNodeB12.x2App[1].client.connectAddress "\"gNodeB13%x2ppp0\""
config *.gNodeB13.x2App[0].client.connectAddress "\"gNodeB12%x2ppp0\""
config *.gNodeB13.x2App[1].client.connectAddress "\"gNodeB14%x2ppp0\""
config *.gNodeB14.x2App[0].client.connectAddress "\"gNodeB13%x2ppp0\""
config *.gNodeB14.x2App[1].client.connectAddress "\"gNodeB15%x2ppp0\""
config *.gNodeB15.x2App[0].client.connectAddress "\"gNodeB14%x2ppp0\""
config *.gNodeB15.x2App[1].client.connectAddress "\"gNodeB16%x2ppp0\""
config *.gNodeB16.x2App[0].client.connectAddress "\"gNodeB15%x2ppp0\""
config *.gNodeB16.x2App[1].client.connectAddress "\"gNodeB17%x2ppp0\""
config *.gNodeB17.x2App[0].client.connectAddress "\"gNodeB16%x2ppp0\""
config *.gNodeB17.x2App[1].client.connectAddress "\"gNodeB1%x2ppp0\""
config **.sctp.nagleEnabled false
config **.sctp.enableHeartbeats false

scalar Crocetta.gNodeB1.x2App[0].client ums 1452
scalar Crocetta.gNodeB1.x2App[1].client ums 1452
scalar Crocetta.gNodeB2.x2App[0].client ums 1452
scalar Crocetta.gNodeB2.x2App[1].client ums 1452
scalar Crocetta.gNodeB3.x2App[0].client ums 1452
scalar Crocetta.gNodeB3.x2App[1].client ums 1452
scalar Crocetta.gNodeB4.x2App[0].client ums 1452
scalar Crocetta.gNodeB4.x2App[1].client ums 1452
scalar Crocetta.gNodeB5.x2App[0].client ums 1452
scalar Crocetta.gNodeB5.x2App[1].client ums 1452
scalar Crocetta.gNodeB6.x2App[0].client ums 1452
scalar Crocetta.gNodeB6.x2App[1].client ums 1452
scalar Crocetta.gNodeB7.x2App[0].client ums 1452
scalar Crocetta.gNodeB7.x2App[1].client ums 1452
scalar Crocetta.gNodeB8.x2App[0].client ums 1452
scalar Crocetta.gNodeB8.x2App[1].client ums 1452
scalar Crocetta.gNodeB9.x2App[0].client ums 1452
scalar Crocetta.gNodeB9.x2App[1].client ums 1452
scalar Crocetta.gNodeB10.x2App[0].client ums 1452
scalar Crocetta.gNodeB10.x2App[1].client ums 1452
scalar Crocetta.gNodeB11.x2App[0].client ums 1452
scalar Crocetta.gNodeB11.x2App[1].client ums 1452
scalar Crocetta.gNodeB12.x2App[0].client ums 1452
scalar Crocetta.gNodeB12.x2App[1].client ums 1452
scalar Crocetta.gNodeB13.x2App[0].client ums 1452
scalar Crocetta.gNodeB13.x2App[1].client ums 1452
scalar Crocetta.gNodeB14.x2App[0].client ums 1452
scalar Crocetta.gNodeB14.x2App[1].client ums 1452
scalar Crocetta.gNodeB15.x2App[0].client ums 1452
scalar Crocetta.gNodeB15.x2App[1].client ums 1452
scalar Crocetta.gNodeB16.x2App[0].client ums 1452
scalar Crocetta.gNodeB16.x2App[1].client ums 1452
scalar Crocetta.gNodeB17.x2App[0].client ums 1452
scalar Crocetta.gNodeB17.x2App[1].client ums 1452
par Crocetta.server.pppg$o[0].channel typename "\"inet.node.ethernet.Eth10G\""
par Crocetta.server.pppg$o[0].channel disabled false
par Crocetta.server.pppg$o[0].channel delay 5e-08s
attr unit s
par Crocetta.server.pppg$o[0].channel datarate 1e+10bps
attr unit bps
par Crocetta.server.pppg$o[0].channel ber 0
par Crocetta.server.pppg$o[0].channel per 0
par Crocetta.server.pppg$o[0].channel length 10m
attr unit m
par Crocetta.router.pppg$o[0].channel typename "\"inet.node.ethernet.Eth10G\""
par Crocetta.router.pppg$o[0].channel disabled false
par Crocetta.router.pppg$o[0].channel delay 5e-08s
attr unit s
par Crocetta.router.pppg$o[0].channel datarate 1e+10bps
attr unit bps
par Crocetta.router.pppg$o[0].channel ber 0
par Crocetta.router.pppg$o[0].channel per 0
par Crocetta.router.pppg$o[0].channel length 10m
attr unit m
par Crocetta.router.pppg$o[1].channel typename "\"inet.node.ethernet.Eth10G\""
par Crocetta.router.pppg$o[1].channel disabled false
par Crocetta.router.pppg$o[1].channel delay 5e-08s
attr unit s
par Crocetta.router.pppg$o[1].channel datarate 1e+10bps
attr unit bps
par Crocetta.router.pppg$o[1].channel ber 0
par Crocetta.router.pppg$o[1].channel per 0
par Crocetta.router.pppg$o[1].channel length 10m
attr unit m
par Crocetta.upf.filterGate$o.channel typename "\"inet.node.ethernet.Eth10G\""
par Crocetta.upf.filterGate$o.channel disabled false
par Crocetta.upf.filterGate$o.channel delay 5e-08s
attr unit s
par Crocetta.upf.filterGate$o.channel datarate 1e+10bps
attr unit bps
par Crocetta.upf.filterGate$o.channel ber 0
par Crocetta.upf.filterGate$o.channel per 0
par Crocetta.upf.filterGate$o.channel length 10m
attr unit m
par Crocetta.upf.pppg$o[0].channel typename "\"inet.node.ethernet.Eth10G\""
par Crocetta.upf.pppg$o[0].channel disabled false
par Crocetta.upf.pppg$o[0].channel delay 5e-08s
attr unit s
par Crocetta.upf.pppg$o[0].channel datarate 1e+10bps
attr unit bps
par Crocetta.upf.pppg$o[0].channel ber 0
par Crocetta.upf.pppg$o[0].channel per 0
par Crocetta.upf.pppg$o[0].channel length 10m
attr unit m
par Crocetta.gNodeB1.ppp$o.channel typename "\"inet.node.ethernet.Eth10G\""
par Crocetta.gNodeB1.ppp$o.channel disabled false
par Crocetta.gNodeB1.ppp$o.channel delay 5e-08s
attr unit s
par Crocetta.gNodeB1.ppp$o.channel datarate 1e+10bps
attr unit bps
par Crocetta.gNodeB1.ppp$o.channel ber 0
par Crocetta.gNodeB1.ppp$o.channel per 0
par Crocetta.gNodeB1.ppp$o.channel length 10m
attr unit m
par Crocetta.upf.pppg$o[1].channel typename "\"inet.node.ethernet.Eth10G\""
par Crocetta.upf.pppg$o[1].channel disabled false
par Crocetta.upf.pppg$o[1].channel delay 5e-08s
attr unit s
par Crocetta.upf.pppg$o[1].channel datarate 1e+10bps
attr unit bps
par Crocetta.upf.pppg$o[1].channel ber 0
par Crocetta.upf.pppg$o[1].channel per 0
par Crocetta.upf.pppg$o[1].channel length 10m
attr unit m
par Crocetta.gNodeB2.ppp$o.channel typename "\"inet.node.ethernet.Eth10G\""
par Crocetta.gNodeB2.ppp$o.channel disabled false
par Crocetta.gNodeB2.ppp$o.channel delay 5e-08s
attr unit s
par Crocetta.gNodeB2.ppp$o.channel datarate 1e+10bps
attr unit bps
par Crocetta.gNodeB2.ppp$o.channel ber 0
par Crocetta.gNodeB2.ppp$o.channel per 0
par Crocetta.gNodeB2.ppp$o.channel length 10m
attr unit m
par Crocetta.upf.pppg$o[2].channel typename "\"inet.node.ethernet.Eth10G\""
par Crocetta.upf.pppg$o[2].channel disabled false
par Crocetta.upf.pppg$o[2].channel delay 5e-08s
attr unit s
par Crocetta.upf.pppg$o[2].channel datarate 1e+10bps
attr unit bps
par Crocetta.upf.pppg$o[2].channel ber 0
par Crocetta.upf.pppg$o[2].channel per 0
par Crocetta.upf.pppg$o[2].channel length 10m
attr unit m
par Crocetta.gNodeB3.ppp$o.channel typename "\"inet.node.ethernet.Eth10G\""
par Crocetta.gNodeB3.ppp$o.channel disabled false
par Crocetta.gNodeB3.ppp$o.channel delay 5e-08s
attr unit s
par Crocetta.gNodeB3.ppp$o.channel datarate 1e+10bps
attr unit bps
par Crocetta.gNodeB3.ppp$o.channel ber 0
par Crocetta.gNodeB3.ppp$o.channel per 0
par Crocetta.gNodeB3.ppp$o.channel length 10m
attr unit m
par Crocetta.upf.pppg$o[3].channel typename "\"inet.node.ethernet.Eth10G\""
par Crocetta.upf.pppg$o[3].channel disabled false
par Crocetta.upf.pppg$o[3].channel delay 5e-08s
attr unit s
par Crocetta.upf.pppg$o[3].channel datarate 1e+10bps
attr unit bps
par Crocetta.upf.pppg$o[3].channel ber 0
par Crocetta.upf.pppg$o[3].channel per 0
par Crocetta.upf.pppg$o[3].channel length 10m
attr unit m
par Crocetta.gNodeB4.ppp$o.channel typename "\"inet.node.ethernet.Eth10G\""
par Crocetta.gNodeB4.ppp$o.channel disabled false
par Crocetta.gNodeB4.ppp$o.channel delay 5e-08s
attr unit s
par Crocetta.gNodeB4.ppp$o.channel datarate 1e+10bps
attr unit bps
par Crocetta.gNodeB4.ppp$o.channel ber 0
par Crocetta.gNodeB4.ppp$o.channel per 0
par Crocetta.gNodeB4.ppp$o.channel length 10m
attr unit m
par Crocetta.upf.pppg$o[4].channel typename "\"inet.node.ethernet.Eth10G\""
par Crocetta.upf.pppg$o[4].channel disabled false
par Crocetta.upf.pppg$o[4].channel delay 5e-08s
attr unit s
par Crocetta.upf.pppg$o[4].channel datarate 1e+10bps
attr unit bps
par Crocetta.upf.pppg$o[4].channel ber 0
par Crocetta.upf.pppg$o[4].channel per 0
par Crocetta.upf.pppg$o[4].channel length 10m
attr unit m
par Crocetta.gNodeB5.ppp$o.channel typename "\"inet.node.ethernet.Eth10G\""
par Crocetta.gNodeB5.ppp$o.channel disabled false
par Crocetta.gNodeB5.ppp$o.channel delay 5e-08s
attr unit s
par Crocetta.gNodeB5.ppp$o.channel datarate 1e+10bps
attr unit bps
par Crocetta.gNodeB5.ppp$o.channel ber 0
par Crocetta.gNodeB5.ppp$o.channel per 0
par Crocetta.gNodeB5.ppp$o.channel length 10m
attr unit m
par Crocetta.upf.pppg$o[5].channel typename "\"inet.node.ethernet.Eth10G\""
par Crocetta.upf.pppg$o[5].channel disabled false
par Crocetta.upf.pppg$o[5].channel delay 5e-08s
attr unit s
par Crocetta.upf.pppg$o[5].channel datarate 1e+10bps
attr unit bps
par Crocetta.upf.pppg$o[5].channel ber 0
par Crocetta.upf.pppg$o[5].channel per 0
par Crocetta.upf.pppg$o[5].channel length 10m
attr unit m
par Crocetta.gNodeB6.ppp$o.channel typename "\"inet.node.ethernet.Eth10G\""
par Crocetta.gNodeB6.ppp$o.channel disabled false
par Crocetta.gNodeB6.ppp$o.channel delay 5e-08s
attr unit s
par Crocetta.gNodeB6.ppp$o.channel datarate 1e+10bps
attr unit bps
par Crocetta.gNodeB6.ppp$o.channel ber 0
par Crocetta.gNodeB6.ppp$o.channel per 0
par Crocetta.gNodeB6.ppp$o.channel length 10m
attr unit m
par Crocetta.upf.pppg$o[6].channel typename "\"inet.node.ethernet.Eth10G\""
par Crocetta.upf.pppg$o[6].channel disabled false
par Crocetta.upf.pppg$o[6].channel delay 5e-08s
attr unit s
par Crocetta.upf.pppg$o[6].channel datarate 1e+10bps
attr unit bps
par Crocetta.upf.pppg$o[6].channel ber 0
par Crocetta.upf.pppg$o[6].channel per 0
par Crocetta.upf.pppg$o[6].channel length 10m
attr unit m
par Crocetta.gNodeB7.ppp$o.channel typename "\"inet.node.ethernet.Eth10G\""
par Crocetta.gNodeB7.ppp$o.channel disabled false
par Crocetta.gNodeB7.ppp$o.channel delay 5e-08s
attr unit s
par Crocetta.gNodeB7.ppp$o.channel datarate 1e+10bps
attr unit bps
par Crocetta.gNodeB7.ppp$o.channel ber 0
par Crocetta.gNodeB7.ppp$o.channel per 0
par Crocetta.gNodeB7.ppp$o.channel length 10m
attr unit m
par Crocetta.upf.pppg$o[7].channel typename "\"inet.node.ethernet.Eth10G\""
par Crocetta.upf.pppg$o[7].channel disabled false
par Crocetta.upf.pppg$o[7].channel delay 5e-08s
attr unit s
par Crocetta.upf.pppg$o[7].channel datarate 1e+10bps
attr unit bps
par Crocetta.upf.pppg$o[7].channel ber 0
par Crocetta.upf.pppg$o[7].channel per 0
par Crocetta.upf.pppg$o[7].channel length 10m
attr unit m
par Crocetta.gNodeB8.ppp$o.channel typename "\"inet.node.ethernet.Eth10G\""
par Crocetta.gNodeB8.ppp$o.channel disabled false
par Crocetta.gNodeB8.ppp$o.channel delay 5e-08s
attr unit s
par Crocetta.gNodeB8.ppp$o.channel datarate 1e+10bps
attr unit bps
par Crocetta.gNodeB8.ppp$o.channel ber 0
par Crocetta.gNodeB8.ppp$o.channel per 0
par Crocetta.gNodeB8.ppp$o.channel length 10m
attr unit m
par Crocetta.upf.pppg$o[8].channel typename "\"inet.node.ethernet.Eth10G\""
par Crocetta.upf.pppg$o[8].channel disabled false
par Crocetta.upf.pppg$o[8].channel delay 5e-08s
attr unit s
par Crocetta.upf.pppg$o[8].channel datarate 1e+10bps
attr unit bps
par Crocetta.upf.pppg$o[8].channel ber 0
par Crocetta.upf.pppg$o[8].channel per 0
par Crocetta.upf.pppg$o[8].channel length 10m
attr unit m
par Crocetta.gNodeB9.ppp$o.channel typename "\"inet.node.ethernet.Eth10G\""
par Crocetta.gNodeB9.ppp$o.channel disabled false
par Crocetta.gNodeB9.ppp$o.channel delay 5e-08s
attr unit s
par Crocetta.gNodeB9.ppp$o.channel datarate 1e+10bps
attr unit bps
par Crocetta.gNodeB9.ppp$o.channel ber 0
par Crocetta.gNodeB9.ppp$o.channel per 0
par Crocetta.gNodeB9.ppp$o.channel length 10m
attr unit m
par Crocetta.upf.pppg$o[9].channel typename "\"inet.node.ethernet.Eth10G\""
par Crocetta.upf.pppg$o[9].channel disabled false
par Crocetta.upf.pppg$o[9].channel delay 5e-08s
attr unit s
par Crocetta.upf.pppg$o[9].channel datarate 1e+10bps
attr unit bps
par Crocetta.upf.pppg$o[9].channel ber 0
par Crocetta.upf.pppg$o[9].channel per 0
par Crocetta.upf.pppg$o[9].channel length 10m
attr unit m
par Crocetta.gNodeB10.ppp$o.channel typename "\"inet.node.ethernet.Eth10G\""
par Crocetta.gNodeB10.ppp$o.channel disabled false
par Crocetta.gNodeB10.ppp$o.channel delay 5e-08s
attr unit s
par Crocetta.gNodeB10.ppp$o.channel datarate 1e+10bps
attr unit bps
par Crocetta.gNodeB10.ppp$o.channel ber 0
par Crocetta.gNodeB10.ppp$o.channel per 0
par Crocetta.gNodeB10.ppp$o.channel length 10m
attr unit m
par Crocetta.upf.pppg$o[10].channel typename "\"inet.node.ethernet.Eth10G\""
par Crocetta.upf.pppg$o[10].channel disabled false
par Crocetta.upf.pppg$o[10].channel delay 5e-08s
attr unit s
par Crocetta.upf.pppg$o[10].channel datarate 1e+10bps
attr unit bps
par Crocetta.upf.pppg$o[10].channel ber 0
par Crocetta.upf.pppg$o[10].channel per 0
par Crocetta.upf.pppg$o[10].channel length 10m
attr unit m
par Crocetta.gNodeB11.ppp$o.channel typename "\"inet.node.ethernet.Eth10G\""
par Crocetta.gNodeB11.ppp$o.channel disabled false
par Crocetta.gNodeB11.ppp$o.channel delay 5e-08s
attr unit s
par Crocetta.gNodeB11.ppp$o.channel datarate 1e+10bps
attr unit bps
par Crocetta.gNodeB11.ppp$o.channel ber 0
par Crocetta.gNodeB11.ppp$o.channel per 0
par Crocetta.gNodeB11.ppp$o.channel length 10m
attr unit m
par Crocetta.upf.pppg$o[11].channel typename "\"inet.node.ethernet.Eth10G\""
par Crocetta.upf.pppg$o[11].channel disabled false
par Crocetta.upf.pppg$o[11].channel delay 5e-08s
attr unit s
par Crocetta.upf.pppg$o[11].channel datarate 1e+10bps
attr unit bps
par Crocetta.upf.pppg$o[11].channel ber 0
par Crocetta.upf.pppg$o[11].channel per 0
par Crocetta.upf.pppg$o[11].channel length 10m
attr unit m
par Crocetta.gNodeB12.ppp$o.channel typename "\"inet.node.ethernet.Eth10G\""
par Crocetta.gNodeB12.ppp$o.channel disabled false
par Crocetta.gNodeB12.ppp$o.channel delay 5e-08s
attr unit s
par Crocetta.gNodeB12.ppp$o.channel datarate 1e+10bps
attr unit bps
par Crocetta.gNodeB12.ppp$o.channel ber 0
par Crocetta.gNodeB12.ppp$o.channel per 0
par Crocetta.gNodeB12.ppp$o.channel length 10m
attr unit m
par Crocetta.upf.pppg$o[12].channel typename "\"inet.node.ethernet.Eth10G\""
par Crocetta.upf.pppg$o[12].channel disabled false
par Crocetta.upf.pppg$o[12].channel delay 5e-08s
attr unit s
par Crocetta.upf.pppg$o[12].channel datarate 1e+10bps
attr unit bps
par Crocetta.upf.pppg$o[12].channel ber 0
par Crocetta.upf.pppg$o[12].channel per 0
par Crocetta.upf.pppg$o[12].channel length 10m
attr unit m
par Crocetta.gNodeB13.ppp$o.channel typename "\"inet.node.ethernet.Eth10G\""
par Crocetta.gNodeB13.ppp$o.channel disabled false
par Crocetta.gNodeB13.ppp$o.channel delay 5e-08s
attr unit s
par Crocetta.gNodeB13.ppp$o.channel datarate 1e+10bps
attr unit bps
par Crocetta.gNodeB13.ppp$o.channel ber 0
par Crocetta.gNodeB13.ppp$o.channel per 0
par Crocetta.gNodeB13.ppp$o.channel length 10m
attr unit m
par Crocetta.upf.pppg$o[13].channel typename "\"inet.node.ethernet.Eth10G\""
par Crocetta.upf.pppg$o[13].channel disabled false
par Crocetta.upf.pppg$o[13].channel delay 5e-08s
attr unit s
par Crocetta.upf.pppg$o[13].channel datarate 1e+10bps
attr unit bps
par Crocetta.upf.pppg$o[13].channel ber 0
par Crocetta.upf.pppg$o[13].channel per 0
par Crocetta.upf.pppg$o[13].channel length 10m
attr unit m
par Crocetta.gNodeB14.ppp$o.channel typename "\"inet.node.ethernet.Eth10G\""
par Crocetta.gNodeB14.ppp$o.channel disabled false
par Crocetta.gNodeB14.ppp$o.channel delay 5e-08s
attr unit s
par Crocetta.gNodeB14.ppp$o.channel datarate 1e+10bps
attr unit bps
par Crocetta.gNodeB14.ppp$o.channel ber 0
par Crocetta.gNodeB14.ppp$o.channel per 0
par Crocetta.gNodeB14.ppp$o.channel length 10m
attr unit m
par Crocetta.upf.pppg$o[14].channel typename "\"inet.node.ethernet.Eth10G\""
par Crocetta.upf.pppg$o[14].channel disabled false
par Crocetta.upf.pppg$o[14].channel delay 5e-08s
attr unit s
par Crocetta.upf.pppg$o[14].channel datarate 1e+10bps
attr unit bps
par Crocetta.upf.pppg$o[14].channel ber 0
par Crocetta.upf.pppg$o[14].channel per 0
par Crocetta.upf.pppg$o[14].channel length 10m
attr unit m
par Crocetta.gNodeB15.ppp$o.channel typename "\"inet.node.ethernet.Eth10G\""
par Crocetta.gNodeB15.ppp$o.channel disabled false
par Crocetta.gNodeB15.ppp$o.channel delay 5e-08s
attr unit s
par Crocetta.gNodeB15.ppp$o.channel datarate 1e+10bps
attr unit bps
par Crocetta.gNodeB15.ppp$o.channel ber 0
par Crocetta.gNodeB15.ppp$o.channel per 0
par Crocetta.gNodeB15.ppp$o.channel length 10m
attr unit m
par Crocetta.upf.pppg$o[15].channel typename "\"inet.node.ethernet.Eth10G\""
par Crocetta.upf.pppg$o[15].channel disabled false
par Crocetta.upf.pppg$o[15].channel delay 5e-08s
attr unit s
par Crocetta.upf.pppg$o[15].channel datarate 1e+10bps
attr unit bps
par Crocetta.upf.pppg$o[15].channel ber 0
par Crocetta.upf.pppg$o[15].channel per 0
par Crocetta.upf.pppg$o[15].channel length 10m
attr unit m
par Crocetta.gNodeB16.ppp$o.channel typename "\"inet.node.ethernet.Eth10G\""
par Crocetta.gNodeB16.ppp$o.channel disabled false
par Crocetta.gNodeB16.ppp$o.channel delay 5e-08s
attr unit s
par Crocetta.gNodeB16.ppp$o.channel datarate 1e+10bps
attr unit bps
par Crocetta.gNodeB16.ppp$o.channel ber 0
par Crocetta.gNodeB16.ppp$o.channel per 0
par Crocetta.gNodeB16.ppp$o.channel length 10m
attr unit m
par Crocetta.upf.pppg$o[16].channel typename "\"inet.node.ethernet.Eth10G\""
par Crocetta.upf.pppg$o[16].channel disabled false
par Crocetta.upf.pppg$o[16].channel delay 5e-08s
attr unit s
par Crocetta.upf.pppg$o[16].channel datarate 1e+10bps
attr unit bps
par Crocetta.upf.pppg$o[16].channel ber 0
par Crocetta.upf.pppg$o[16].channel per 0
par Crocetta.upf.pppg$o[16].channel length 10m
attr unit m
par Crocetta.gNodeB17.ppp$o.channel typename "\"inet.node.ethernet.Eth10G\""
par Crocetta.gNodeB17.ppp$o.channel disabled false
par Crocetta.gNodeB17.ppp$o.channel delay 5e-08s
attr unit s
par Crocetta.gNodeB17.ppp$o.channel datarate 1e+10bps
attr unit bps
par Crocetta.gNodeB17.ppp$o.channel ber 0
par Crocetta.gNodeB17.ppp$o.channel per 0
par Crocetta.gNodeB17.ppp$o.channel length 10m
attr unit m
par Crocetta.gNodeB1.x2$o[0].channel typename "\"inet.node.ethernet.Eth10G\""
par Crocetta.gNodeB1.x2$o[0].channel disabled false
par Crocetta.gNodeB1.x2$o[0].channel delay 5e-08s
attr unit s
par Crocetta.gNodeB1.x2$o[0].channel datarate 1e+10bps
attr unit bps
par Crocetta.gNodeB1.x2$o[0].channel ber 0
par Crocetta.gNodeB1.x2$o[0].channel per 0
par Crocetta.gNodeB1.x2$o[0].channel length 10m
attr unit m
par Crocetta.gNodeB2.x2$o[0].channel typename "\"inet.node.ethernet.Eth10G\""
par Crocetta.gNodeB2.x2$o[0].channel disabled false
par Crocetta.gNodeB2.x2$o[0].channel delay 5e-08s
attr unit s
par Crocetta.gNodeB2.x2$o[0].channel datarate 1e+10bps
attr unit bps
par Crocetta.gNodeB2.x2$o[0].channel ber 0
par Crocetta.gNodeB2.x2$o[0].channel per 0
par Crocetta.gNodeB2.x2$o[0].channel length 10m
attr unit m
par Crocetta.gNodeB2.x2$o[1].channel typename "\"inet.node.ethernet.Eth10G\""
par Crocetta.gNodeB2.x2$o[1].channel disabled false
par Crocetta.gNodeB2.x2$o[1].channel delay 5e-08s
attr unit s
par Crocetta.gNodeB2.x2$o[1].channel datarate 1e+10bps
attr unit bps
par Crocetta.gNodeB2.x2$o[1].channel ber 0
par Crocetta.gNodeB2.x2$o[1].channel per 0
par Crocetta.gNodeB2.x2$o[1].channel length 10m
attr unit m
par Crocetta.gNodeB3.x2$o[0].channel typename "\"inet.node.ethernet.Eth10G\""
par Crocetta.gNodeB3.x2$o[0].channel disabled false
par Crocetta.gNodeB3.x2$o[0].channel delay 5e-08s
attr unit s
par Crocetta.gNodeB3.x2$o[0].channel datarate 1e+10bps
attr unit bps
par Crocetta.gNodeB3.x2$o[0].channel ber 0
par Crocetta.gNodeB3.x2$o[0].channel per 0
par Crocetta.gNodeB3.x2$o[0].channel length 10m
attr unit m
par Crocetta.gNodeB3.x2$o[1].channel typename "\"inet.node.ethernet.Eth10G\""
par Crocetta.gNodeB3.x2$o[1].channel disabled false
par Crocetta.gNodeB3.x2$o[1].channel delay 5e-08s
attr unit s
par Crocetta.gNodeB3.x2$o[1].channel datarate 1e+10bps
attr unit bps
par Crocetta.gNodeB3.x2$o[1].channel ber 0
par Crocetta.gNodeB3.x2$o[1].channel per 0
par Crocetta.gNodeB3.x2$o[1].channel length 10m
attr unit m
par Crocetta.gNodeB4.x2$o[0].channel typename "\"inet.node.ethernet.Eth10G\""
par Crocetta.gNodeB4.x2$o[0].channel disabled false
par Crocetta.gNodeB4.x2$o[0].channel delay 5e-08s
attr unit s
par Crocetta.gNodeB4.x2$o[0].channel datarate 1e+10bps
attr unit bps
par Crocetta.gNodeB4.x2$o[0].channel ber 0
par Crocetta.gNodeB4.x2$o[0].channel per 0
par Crocetta.gNodeB4.x2$o[0].channel length 10m
attr unit m
par Crocetta.gNodeB4.x2$o[1].channel typename "\"inet.node.ethernet.Eth10G\""
par Crocetta.gNodeB4.x2$o[1].channel disabled false
par Crocetta.gNodeB4.x2$o[1].channel delay 5e-08s
attr unit s
par Crocetta.gNodeB4.x2$o[1].channel datarate 1e+10bps
attr unit bps
par Crocetta.gNodeB4.x2$o[1].channel ber 0
par Crocetta.gNodeB4.x2$o[1].channel per 0
par Crocetta.gNodeB4.x2$o[1].channel length 10m
attr unit m
par Crocetta.gNodeB5.x2$o[0].channel typename "\"inet.node.ethernet.Eth10G\""
par Crocetta.gNodeB5.x2$o[0].channel disabled false
par Crocetta.gNodeB5.x2$o[0].channel delay 5e-08s
attr unit s
par Crocetta.gNodeB5.x2$o[0].channel datarate 1e+10bps
attr unit bps
par Crocetta.gNodeB5.x2$o[0].channel ber 0
par Crocetta.gNodeB5.x2$o[0].channel per 0
par Crocetta.gNodeB5.x2$o[0].channel length 10m
attr unit m
par Crocetta.gNodeB5.x2$o[1].channel typename "\"inet.node.ethernet.Eth10G\""
par Crocetta.gNodeB5.x2$o[1].channel disabled false
par Crocetta.gNodeB5.x2$o[1].channel delay 5e-08s
attr unit s
par Crocetta.gNodeB5.x2$o[1].channel datarate 1e+10bps
attr unit bps
par Crocetta.gNodeB5.x2$o[1].channel ber 0
par Crocetta.gNodeB5.x2$o[1].channel per 0
par Crocetta.gNodeB5.x2$o[1].channel length 10m
attr unit m
par Crocetta.gNodeB6.x2$o[0].channel typename "\"inet.node.ethernet.Eth10G\""
par Crocetta.gNodeB6.x2$o[0].channel disabled false
par Crocetta.gNodeB6.x2$o[0].channel delay 5e-08s
attr unit s
par Crocetta.gNodeB6.x2$o[0].channel datarate 1e+10bps
attr unit bps
par Crocetta.gNodeB6.x2$o[0].channel ber 0
par Crocetta.gNodeB6.x2$o[0].channel per 0
par Crocetta.gNodeB6.x2$o[0].channel length 10m
attr unit m
par Crocetta.gNodeB6.x2$o[1].channel typename "\"inet.node.ethernet.Eth10G\""
par Crocetta.gNodeB6.x2$o[1].channel disabled false
par Crocetta.gNodeB6.x2$o[1].channel delay 5e-08s
attr unit s
par Crocetta.gNodeB6.x2$o[1].channel datarate 1e+10bps
attr unit bps
par Crocetta.gNodeB6.x2$o[1].channel ber 0
par Crocetta.gNodeB6.x2$o[1].channel per 0
par Crocetta.gNodeB6.x2$o[1].channel length 10m
attr unit m
par Crocetta.gNodeB7.x2$o[0].channel typename "\"inet.node.ethernet.Eth10G\""
par Crocetta.gNodeB7.x2$o[0].channel disabled false
par Crocetta.gNodeB7.x2$o[0].channel delay 5e-08s
attr unit s
par Crocetta.gNodeB7.x2$o[0].channel datarate 1e+10bps
attr unit bps
par Crocetta.gNodeB7.x2$o[0].channel ber 0
par Crocetta.gNodeB7.x2$o[0].channel per 0
par Crocetta.gNodeB7.x2$o[0].channel length 10m
attr unit m
par Crocetta.gNodeB7.x2$o[1].channel typename "\"inet.node.ethernet.Eth10G\""
par Crocetta.gNodeB7.x2$o[1].channel disabled false
par Crocetta.gNodeB7.x2$o[1].channel delay 5e-08s
attr unit s
par Crocetta.gNodeB7.x2$o[1].channel datarate 1e+10bps
attr unit bps
par Crocetta.gNodeB7.x2$o[1].channel ber 0
par Crocetta.gNodeB7.x2$o[1].channel per 0
par Crocetta.gNodeB7.x2$o[1].channel length 10m
attr unit m
par Crocetta.gNodeB8.x2$o[0].channel typename "\"inet.node.ethernet.Eth10G\""
par Crocetta.gNodeB8.x2$o[0].channel disabled false
par Crocetta.gNodeB8.x2$o[0].channel delay 5e-08s
attr unit s
par Crocetta.gNodeB8.x2$o[0].channel datarate 1e+10bps
attr unit bps
par Crocetta.gNodeB8.x2$o[0].channel ber 0
par Crocetta.gNodeB8.x2$o[0].channel per 0
par Crocetta.gNodeB8.x2$o[0].channel length 10m
attr unit m
par Crocetta.gNodeB8.x2$o[1].channel typename "\"inet.node.ethernet.Eth10G\""
par Crocetta.gNodeB8.x2$o[1].channel disabled false
par Crocetta.gNodeB8.x2$o[1].channel delay 5e-08s
attr unit s
par Crocetta.gNodeB8.x2$o[1].channel datarate 1e+10bps
attr unit bps
par Crocetta.gNodeB8.x2$o[1].channel ber 0
par Crocetta.gNodeB8.x2$o[1].channel per 0
par Crocetta.gNodeB8.x2$o[1].channel length 10m
attr unit m
par Crocetta.gNodeB9.x2$o[0].channel typename "\"inet.node.ethernet.Eth10G\""
par Crocetta.gNodeB9.x2$o[0].channel disabled false
par Crocetta.gNodeB9.x2$o[0].channel delay 5e-08s
attr unit s
par Crocetta.gNodeB9.x2$o[0].channel datarate 1e+10bps
attr unit bps
par Crocetta.gNodeB9.x2$o[0].channel ber 0
par Crocetta.gNodeB9.x2$o[0].channel per 0
par Crocetta.gNodeB9.x2$o[0].channel length 10m
attr unit m
par Crocetta.gNodeB9.x2$o[1].channel typename "\"inet.node.ethernet.Eth10G\""
par Crocetta.gNodeB9.x2$o[1].channel disabled false
par Crocetta.gNodeB9.x2$o[1].channel delay 5e-08s
attr unit s
par Crocetta.gNodeB9.x2$o[1].channel datarate 1e+10bps
attr unit bps
par Crocetta.gNodeB9.x2$o[1].channel ber 0
par Crocetta.gNodeB9.x2$o[1].channel per 0
par Crocetta.gNodeB9.x2$o[1].channel length 10m
attr unit m
par Crocetta.gNodeB10.x2$o[0].channel typename "\"inet.node.ethernet.Eth10G\""
par Crocetta.gNodeB10.x2$o[0].channel disabled false
par Crocetta.gNodeB10.x2$o[0].channel delay 5e-08s
attr unit s
par Crocetta.gNodeB10.x2$o[0].channel datarate 1e+10bps
attr unit bps
par Crocetta.gNodeB10.x2$o[0].channel ber 0
par Crocetta.gNodeB10.x2$o[0].channel per 0
par Crocetta.gNodeB10.x2$o[0].channel length 10m
attr unit m
par Crocetta.gNodeB10.x2$o[1].channel typename "\"inet.node.ethernet.Eth10G\""
par Crocetta.gNodeB10.x2$o[1].channel disabled false
par Crocetta.gNodeB10.x2$o[1].channel delay 5e-08s
attr unit s
par Crocetta.gNodeB10.x2$o[1].channel datarate 1e+10bps
attr unit bps
par Crocetta.gNodeB10.x2$o[1].channel ber 0
par Crocetta.gNodeB10.x2$o[1].channel per 0
par Crocetta.gNodeB10.x2$o[1].channel length 10m
attr unit m
par Crocetta.gNodeB11.x2$o[0].channel typename "\"inet.node.ethernet.Eth10G\""
par Crocetta.gNodeB11.x2$o[0].channel disabled false
par Crocetta.gNodeB11.x2$o[0].channel delay 5e-08s
attr unit s
par Crocetta.gNodeB11.x2$o[0].channel datarate 1e+10bps
attr unit bps
par Crocetta.gNodeB11.x2$o[0].channel ber 0
par Crocetta.gNodeB11.x2$o[0].channel per 0
par Crocetta.gNodeB11.x2$o[0].channel length 10m
attr unit m
par Crocetta.gNodeB11.x2$o[1].channel typename "\"inet.node.ethernet.Eth10G\""
par Crocetta.gNodeB11.x2$o[1].channel disabled false
par Crocetta.gNodeB11.x2$o[1].channel delay 5e-08s
attr unit s
par Crocetta.gNodeB11.x2$o[1].channel datarate 1e+10bps
attr unit bps
par Crocetta.gNodeB11.x2$o[1].channel ber 0
par Crocetta.gNodeB11.x2$o[1].channel per 0
par Crocetta.gNodeB11.x2$o[1].channel length 10m
attr unit m
par Crocetta.gNodeB12.x2$o[0].channel typename "\"inet.node.ethernet.Eth10G\""
par Crocetta.gNodeB12.x2$o[0].channel disabled false
par Crocetta.gNodeB12.x2$o[0].channel delay 5e-08s
attr unit s
par Crocetta.gNodeB12.x2$o[0].channel datarate 1e+10bps
attr unit bps
par Crocetta.gNodeB12.x2$o[0].channel ber 0
par Crocetta.gNodeB12.x2$o[0].channel per 0
par Crocetta.gNodeB12.x2$o[0].channel length 10m
attr unit m
par Crocetta.gNodeB12.x2$o[1].channel typename "\"inet.node.ethernet.Eth10G\""
par Crocetta.gNodeB12.x2$o[1].channel disabled false
par Crocetta.gNodeB12.x2$o[1].channel delay 5e-08s
attr unit s
par Crocetta.gNodeB12.x2$o[1].channel datarate 1e+10bps
attr unit bps
par Crocetta.gNodeB12.x2$o[1].channel ber 0
par Crocetta.gNodeB12.x2$o[1].channel per 0
par Crocetta.gNodeB12.x2$o[1].channel length 10m
attr unit m
par Crocetta.gNodeB13.x2$o[0].channel typename "\"inet.node.ethernet.Eth10G\""
par Crocetta.gNodeB13.x2$o[0].channel disabled false
par Crocetta.gNodeB13.x2$o[0].channel delay 5e-08s
attr unit s
par Crocetta.gNodeB13.x2$o[0].channel datarate 1e+10bps
attr unit bps
par Crocetta.gNodeB13.x2$o[0].channel ber 0
par Crocetta.gNodeB13.x2$o[0].channel per 0
par Crocetta.gNodeB13.x2$o[0].channel length 10m
attr unit m
par Crocetta.gNodeB13.x2$o[1].channel typename "\"inet.node.ethernet.Eth10G\""
par Crocetta.gNodeB13.x2$o[1].channel disabled false
par Crocetta.gNodeB13.x2$o[1].channel delay 5e-08s
attr unit s
par Crocetta.gNodeB13.x2$o[1].channel datarate 1e+10bps
attr unit bps
par Crocetta.gNodeB13.x2$o[1].channel ber 0
par Crocetta.gNodeB13.x2$o[1].channel per 0
par Crocetta.gNodeB13.x2$o[1].channel length 10m
attr unit m
par Crocetta.gNodeB14.x2$o[0].channel typename "\"inet.node.ethernet.Eth10G\""
par Crocetta.gNodeB14.x2$o[0].channel disabled false
par Crocetta.gNodeB14.x2$o[0].channel delay 5e-08s
attr unit s
par Crocetta.gNodeB14.x2$o[0].channel datarate 1e+10bps
attr unit bps
par Crocetta.gNodeB14.x2$o[0].channel ber 0
par Crocetta.gNodeB14.x2$o[0].channel per 0
par Crocetta.gNodeB14.x2$o[0].channel length 10m
attr unit m
par Crocetta.gNodeB14.x2$o[1].channel typename "\"inet.node.ethernet.Eth10G\""
par Crocetta.gNodeB14.x2$o[1].channel disabled false
par Crocetta.gNodeB14.x2$o[1].channel delay 5e-08s
attr unit s
par Crocetta.gNodeB14.x2$o[1].channel datarate 1e+10bps
attr unit bps
par Crocetta.gNodeB14.x2$o[1].channel ber 0
par Crocetta.gNodeB14.x2$o[1].channel per 0
par Crocetta.gNodeB14.x2$o[1].channel length 10m
attr unit m
par Crocetta.gNodeB15.x2$o[0].channel typename "\"inet.node.ethernet.Eth10G\""
par Crocetta.gNodeB15.x2$o[0].channel disabled false
par Crocetta.gNodeB15.x2$o[0].channel delay 5e-08s
attr unit s
par Crocetta.gNodeB15.x2$o[0].channel datarate 1e+10bps
attr unit bps
par Crocetta.gNodeB15.x2$o[0].channel ber 0
par Crocetta.gNodeB15.x2$o[0].channel per 0
par Crocetta.gNodeB15.x2$o[0].channel length 10m
attr unit m
par Crocetta.gNodeB15.x2$o[1].channel typename "\"inet.node.ethernet.Eth10G\""
par Crocetta.gNodeB15.x2$o[1].channel disabled false
par Crocetta.gNodeB15.x2$o[1].channel delay 5e-08s
attr unit s
par Crocetta.gNodeB15.x2$o[1].channel datarate 1e+10bps
attr unit bps
par Crocetta.gNodeB15.x2$o[1].channel ber 0
par Crocetta.gNodeB15.x2$o[1].channel per 0
par Crocetta.gNodeB15.x2$o[1].channel length 10m
attr unit m
par Crocetta.gNodeB16.x2$o[0].channel typename "\"inet.node.ethernet.Eth10G\""
par Crocetta.gNodeB16.x2$o[0].channel disabled false
par Crocetta.gNodeB16.x2$o[0].channel delay 5e-08s
attr unit s
par Crocetta.gNodeB16.x2$o[0].channel datarate 1e+10bps
attr unit bps
par Crocetta.gNodeB16.x2$o[0].channel ber 0
par Crocetta.gNodeB16.x2$o[0].channel per 0
par Crocetta.gNodeB16.x2$o[0].channel length 10m
attr unit m
par Crocetta.gNodeB16.x2$o[1].channel typename "\"inet.node.ethernet.Eth10G\""
par Crocetta.gNodeB16.x2$o[1].channel disabled false
par Crocetta.gNodeB16.x2$o[1].channel delay 5e-08s
attr unit s
par Crocetta.gNodeB16.x2$o[1].channel datarate 1e+10bps
attr unit bps
par Crocetta.gNodeB16.x2$o[1].channel ber 0
par Crocetta.gNodeB16.x2$o[1].channel per 0
par Crocetta.gNodeB16.x2$o[1].channel length 10m
attr unit m
par Crocetta.gNodeB17.x2$o[0].channel typename "\"inet.node.ethernet.Eth10G\""
par Crocetta.gNodeB17.x2$o[0].channel disabled false
par Crocetta.gNodeB17.x2$o[0].channel delay 5e-08s
attr unit s
par Crocetta.gNodeB17.x2$o[0].channel datarate 1e+10bps
attr unit bps
par Crocetta.gNodeB17.x2$o[0].channel ber 0
par Crocetta.gNodeB17.x2$o[0].channel per 0
par Crocetta.gNodeB17.x2$o[0].channel length 10m
attr unit m
par Crocetta.gNodeB17.x2$o[1].channel typename "\"inet.node.ethernet.Eth10G\""
par Crocetta.gNodeB17.x2$o[1].channel disabled false
par Crocetta.gNodeB17.x2$o[1].channel delay 5e-08s
attr unit s
par Crocetta.gNodeB17.x2$o[1].channel datarate 1e+10bps
attr unit bps
par Crocetta.gNodeB17.x2$o[1].channel ber 0
par Crocetta.gNodeB17.x2$o[1].channel per 0
par Crocetta.gNodeB17.x2$o[1].channel length 10m
attr unit m
par Crocetta.gNodeB1.x2$o[1].channel typename "\"inet.node.ethernet.Eth10G\""
par Crocetta.gNodeB1.x2$o[1].channel disabled false
par Crocetta.gNodeB1.x2$o[1].channel delay 5e-08s
attr unit s
par Crocetta.gNodeB1.x2$o[1].channel datarate 1e+10bps
attr unit bps
par Crocetta.gNodeB1.x2$o[1].channel ber 0
par Crocetta.gNodeB1.x2$o[1].channel per 0
par Crocetta.gNodeB1.x2$o[1].channel length 10m
attr unit m
par Crocetta.visualizer.canvasVisualizer.sceneVisualizer typename "\"inet.visualizer.canvas.scene.SceneCanvasVisualizer\""
par Crocetta.visualizer.canvasVisualizer.sceneVisualizer visualizationTargetModule "\"^.^.^\""
par Crocetta.visualizer.canvasVisualizer.sceneVisualizer visualizationSubjectModule "\"^.^.^\""
par Crocetta.visualizer.canvasVisualizer.sceneVisualizer tags "\"\""
par Crocetta.visualizer.canvasVisualizer.sceneVisualizer physicalEnvironmentModule "\"physicalEnvironment\""
par Crocetta.visualizer.canvasVisualizer.sceneVisualizer networkNodeVisualizerModule "\"^.networkNodeVisualizer\""
par Crocetta.visualizer.canvasVisualizer.sceneVisualizer axisLength "nan m"
attr unit m
par Crocetta.visualizer.canvasVisualizer.sceneVisualizer animationSpeed 0
par Crocetta.visualizer.canvasVisualizer.sceneVisualizer sceneMinX "nan m"
attr unit m
par Crocetta.visualizer.canvasVisualizer.sceneVisualizer sceneMinY "nan m"
attr unit m
par Crocetta.visualizer.canvasVisualizer.sceneVisualizer sceneMinZ "nan m"
attr unit m
par Crocetta.visualizer.canvasVisualizer.sceneVisualizer sceneMaxX "nan m"
attr unit m
par Crocetta.visualizer.canvasVisualizer.sceneVisualizer sceneMaxY "nan m"
attr unit m
par Crocetta.visualizer.canvasVisualizer.sceneVisualizer sceneMaxZ "nan m"
attr unit m
par Crocetta.visualizer.canvasVisualizer.sceneVisualizer zIndex 0
par Crocetta.visualizer.canvasVisualizer.sceneVisualizer viewAngle "\"x right y down z out\""
par Crocetta.visualizer.canvasVisualizer.sceneVisualizer viewScale "\"1 1\""
par Crocetta.visualizer.canvasVisualizer.sceneVisualizer viewTranslation "\"0 0\""
par Crocetta.visualizer.canvasVisualizer.sceneVisualizer descriptionFigure "\"\""
par Crocetta.visualizer.canvasVisualizer.physicalEnvironmentVisualizer typename "\"inet.visualizer.canvas.environment.PhysicalEnvironmentCanvasVisualizer\""
par Crocetta.visualizer.canvasVisualizer.physicalEnvironmentVisualizer visualizationTargetModule "\"^.^.^\""
par Crocetta.visualizer.canvasVisualizer.physicalEnvironmentVisualizer visualizationSubjectModule "\"^.^.^\""
par Crocetta.visualizer.canvasVisualizer.physicalEnvironmentVisualizer tags "\"\""
par Crocetta.visualizer.canvasVisualizer.physicalEnvironmentVisualizer physicalEnvironmentModule "\"physicalEnvironment\""
par Crocetta.visualizer.canvasVisualizer.physicalEnvironmentVisualizer displayObjects true
par Crocetta.visualizer.canvasVisualizer.physicalEnvironmentVisualizer zIndex 0
par Crocetta.visualizer.canvasVisualizer.networkNodeVisualizer typename "\"inet.visualizer.canvas.scene.NetworkNodeCanvasVisualizer\""
par Crocetta.visualizer.canvasVisualizer.networkNodeVisualizer visualizationTargetModule "\"^.^.^\""
par Crocetta.visualizer.canvasVisualizer.networkNodeVisualizer visualizationSubjectModule "\"^.^.^\""
par Crocetta.visualizer.canvasVisualizer.networkNodeVisualizer tags "\"\""
par Crocetta.visualizer.canvasVisualizer.networkNodeVisualizer nodeFilter "\"*\""
par Crocetta.visualizer.canvasVisualizer.networkNodeVisualizer annotationSpacing 4
par Crocetta.visualizer.canvasVisualizer.networkNodeVisualizer placementPenalty 10
par Crocetta.visualizer.canvasVisualizer.networkNodeVisualizer zIndex 0
par Crocetta.visualizer.canvasVisualizer.networkConnectionVisualizer typename "\"inet.visualizer.canvas.scene.NetworkConnectionCanvasVisualizer\""
par Crocetta.visualizer.canvasVisualizer.networkConnectionVisualizer visualizationTargetModule "\"^.^.^\""
par Crocetta.visualizer.canvasVisualizer.networkConnectionVisualizer visualizationSubjectModule "\"^.^.^\""
par Crocetta.visualizer.canvasVisualizer.networkConnectionVisualizer tags "\"\""
par Crocetta.visualizer.canvasVisualizer.networkConnectionVisualizer displayNetworkConnections true
par Crocetta.visualizer.canvasVisualizer.networkConnectionVisualizer nodeFilter "\"\""
par Crocetta.visualizer.canvasVisualizer.networkConnectionVisualizer lineColor "\"black\""
par Crocetta.visualizer.canvasVisualizer.networkConnectionVisualizer lineStyle "\"solid\""
par Crocetta.visualizer.canvasVisualizer.networkConnectionVisualizer lineWidth 1
par Crocetta.visualizer.canvasVisualizer.networkConnectionVisualizer zIndex 0
par Crocetta.visualizer.canvasVisualizer.mobilityVisualizer typename "\"inet.visualizer.canvas.mobility.MobilityCanvasVisualizer\""
par Crocetta.visualizer.canvasVisualizer.mobilityVisualizer visualizationTargetModule "\"^.^.^\""
par Crocetta.visualizer.canvasVisualizer.mobilityVisualizer visualizationSubjectModule "\"^.^.^\""
par Crocetta.visualizer.canvasVisualizer.mobilityVisualizer tags "\"\""
par Crocetta.visualizer.canvasVisualizer.mobilityVisualizer networkNodeVisualizerModule "\"^.networkNodeVisualizer\""
par Crocetta.visualizer.canvasVisualizer.mobilityVisualizer displayMobility true
par Crocetta.visualizer.canvasVisualizer.mobilityVisualizer animationSpeed 0
par Crocetta.visualizer.canvasVisualizer.mobilityVisualizer moduleFilter "\"**.mobility\""
par Crocetta.visualizer.canvasVisualizer.mobilityVisualizer displayPositions false
par Crocetta.visualizer.canvasVisualizer.mobilityVisualizer positionCircleRadius 4
par Crocetta.visualizer.canvasVisualizer.mobilityVisualizer positionCircleLineWidth 1
par Crocetta.visualizer.canvasVisualizer.mobilityVisualizer positionCircleLineColor "\"dark\""
attr enum light,dark
par Crocetta.visualizer.canvasVisualizer.mobilityVisualizer positionCircleFillColor "\"dark\""
attr enum light,dark
par Crocetta.visualizer.canvasVisualizer.mobilityVisualizer displayOrientations false
par Crocetta.visualizer.canvasVisualizer.mobilityVisualizer orientationPieRadius 32
par Crocetta.visualizer.canvasVisualizer.mobilityVisualizer orientationPieSize 0.2
par Crocetta.visualizer.canvasVisualizer.mobilityVisualizer orientationPieOpacity 0.25
par Crocetta.visualizer.canvasVisualizer.mobilityVisualizer orientationLineColor "\"black\""
par Crocetta.visualizer.canvasVisualizer.mobilityVisualizer orientationLineStyle "\"solid\""
par Crocetta.visualizer.canvasVisualizer.mobilityVisualizer orientationLineWidth 1
par Crocetta.visualizer.canvasVisualizer.mobilityVisualizer orientationFillColor "\"blue\""
par Crocetta.visualizer.canvasVisualizer.mobilityVisualizer displayVelocities false
par Crocetta.visualizer.canvasVisualizer.mobilityVisualizer velocityArrowScale 1
par Crocetta.visualizer.canvasVisualizer.mobilityVisualizer velocityLineColor "\"black\""
par Crocetta.visualizer.canvasVisualizer.mobilityVisualizer velocityLineStyle "\"solid\""
par Crocetta.visualizer.canvasVisualizer.mobilityVisualizer velocityLineWidth 1
par Crocetta.visualizer.canvasVisualizer.mobilityVisualizer displayMovementTrails false
par Crocetta.visualizer.canvasVisualizer.mobilityVisualizer movementTrailLineColor "\"dark\""
attr enum light,dark
par Crocetta.visualizer.canvasVisualizer.mobilityVisualizer movementTrailLineStyle "\"solid\""
par Crocetta.visualizer.canvasVisualizer.mobilityVisualizer movementTrailLineWidth 1
par Crocetta.visualizer.canvasVisualizer.mobilityVisualizer trailLength 100
par Crocetta.visualizer.canvasVisualizer.mobilityVisualizer zIndex 0
par Crocetta.visualizer.canvasVisualizer.statisticVisualizer typename "\"inet.visualizer.canvas.common.StatisticCanvasVisualizer\""
par Crocetta.visualizer.canvasVisualizer.statisticVisualizer visualizationTargetModule "\"^.^.^\""
par Crocetta.visualizer.canvasVisualizer.statisticVisualizer visualizationSubjectModule "\"^.^.^\""
par Crocetta.visualizer.canvasVisualizer.statisticVisualizer tags "\"\""
par Crocetta.visualizer.canvasVisualizer.statisticVisualizer networkNodeVisualizerModule "\"^.networkNodeVisualizer\""
par Crocetta.visualizer.canvasVisualizer.statisticVisualizer displayStatistics true
par Crocetta.visualizer.canvasVisualizer.statisticVisualizer signalName "\"\""
par Crocetta.visualizer.canvasVisualizer.statisticVisualizer statisticName "\"\""
par Crocetta.visualizer.canvasVisualizer.statisticVisualizer statisticUnit "\"\""
par Crocetta.visualizer.canvasVisualizer.statisticVisualizer statisticExpression "\"\""
par Crocetta.visualizer.canvasVisualizer.statisticVisualizer sourceFilter "\"**\""
par Crocetta.visualizer.canvasVisualizer.statisticVisualizer format "\"%n: %v %u\""
par Crocetta.visualizer.canvasVisualizer.statisticVisualizer unit "\"\""
par Crocetta.visualizer.canvasVisualizer.statisticVisualizer font "\"<default>\""
par Crocetta.visualizer.canvasVisualizer.statisticVisualizer textColor "\"black\""
par Crocetta.visualizer.canvasVisualizer.statisticVisualizer backgroundColor "\"white\""
par Crocetta.visualizer.canvasVisualizer.statisticVisualizer opacity 1
par Crocetta.visualizer.canvasVisualizer.statisticVisualizer placementHint "\"top\""
par Crocetta.visualizer.canvasVisualizer.statisticVisualizer placementPriority 0
par Crocetta.visualizer.canvasVisualizer.statisticVisualizer zIndex 10
par Crocetta.visualizer.canvasVisualizer.statisticVisualizer propertyName "\"\""
par Crocetta.visualizer.canvasVisualizer.statisticVisualizer propertyIndex "\"\""
par Crocetta.visualizer.canvasVisualizer.infoVisualizer typename "\"inet.visualizer.canvas.common.InfoCanvasVisualizer\""
par Crocetta.visualizer.canvasVisualizer.infoVisualizer visualizationTargetModule "\"^.^.^\""
par Crocetta.visualizer.canvasVisualizer.infoVisualizer visualizationSubjectModule "\"^.^.^\""
par Crocetta.visualizer.canvasVisualizer.infoVisualizer tags "\"\""
par Crocetta.visualizer.canvasVisualizer.infoVisualizer networkNodeVisualizerModule "\"^.networkNodeVisualizer\""
par Crocetta.visualizer.canvasVisualizer.infoVisualizer displayInfos true
par Crocetta.visualizer.canvasVisualizer.infoVisualizer modules "\"\""
par Crocetta.visualizer.canvasVisualizer.infoVisualizer format "\"%t\""
par Crocetta.visualizer.canvasVisualizer.infoVisualizer font "\"<default>\""
par Crocetta.visualizer.canvasVisualizer.infoVisualizer textColor "\"black\""
par Crocetta.visualizer.canvasVisualizer.infoVisualizer backgroundColor "\"white\""
par Crocetta.visualizer.canvasVisualizer.infoVisualizer opacity 1
par Crocetta.visualizer.canvasVisualizer.infoVisualizer placementHint "\"top\""
par Crocetta.visualizer.canvasVisualizer.infoVisualizer placementPriority 0
par Crocetta.visualizer.canvasVisualizer.infoVisualizer zIndex 10
par Crocetta.visualizer.canvasVisualizer.energyStorageVisualizer typename "\"inet.visualizer.canvas.power.EnergyStorageCanvasVisualizer\""
par Crocetta.visualizer.canvasVisualizer.energyStorageVisualizer visualizationTargetModule "\"^.^.^\""
par Crocetta.visualizer.canvasVisualizer.energyStorageVisualizer visualizationSubjectModule "\"^.^.^\""
par Crocetta.visualizer.canvasVisualizer.energyStorageVisualizer tags "\"\""
par Crocetta.visualizer.canvasVisualizer.energyStorageVisualizer networkNodeVisualizerModule "\"^.networkNodeVisualizer\""
par Crocetta.visualizer.canvasVisualizer.energyStorageVisualizer displayEnergyStorages false
par Crocetta.visualizer.canvasVisualizer.energyStorageVisualizer energyStorageFilter "\"**\""
par Crocetta.visualizer.canvasVisualizer.energyStorageVisualizer color "\"green\""
par Crocetta.visualizer.canvasVisualizer.energyStorageVisualizer width 8
par Crocetta.visualizer.canvasVisualizer.energyStorageVisualizer height 24
par Crocetta.visualizer.canvasVisualizer.energyStorageVisualizer spacing 2
par Crocetta.visualizer.canvasVisualizer.energyStorageVisualizer placementHint "\"right\""
par Crocetta.visualizer.canvasVisualizer.energyStorageVisualizer placementPriority 0
par Crocetta.visualizer.canvasVisualizer.energyStorageVisualizer zIndex 10
par Crocetta.visualizer.canvasVisualizer.mediumVisualizer typename "\"inet.visualizer.canvas.physicallayer.MediumCanvasVisualizer\""
par Crocetta.visualizer.canvasVisualizer.mediumVisualizer visualizationTargetModule "\"^.^.^\""
par Crocetta.visualizer.canvasVisualizer.mediumVisualizer visualizationSubjectModule "\"^.^.^\""
par Crocetta.visualizer.canvasVisualizer.mediumVisualizer tags "\"\""
par Crocetta.visualizer.canvasVisualizer.mediumVisualizer mediumModule "\"radioMedium\""
par Crocetta.visualizer.canvasVisualizer.mediumVisualizer networkNodeVisualizerModule "\"^.networkNodeVisualizer\""
par Crocetta.visualizer.canvasVisualizer.mediumVisualizer nodeFilter "\"*\""
par Crocetta.visualizer.canvasVisualizer.mediumVisualizer interfaceFilter "\"*\""
par Crocetta.visualizer.canvasVisualizer.mediumVisualizer packetFilter "\"*\""
par Crocetta.visualizer.canvasVisualizer.mediumVisualizer packetDataFilter "\"*\""
par Crocetta.visualizer.canvasVisualizer.mediumVisualizer displaySignals false
par Crocetta.visualizer.canvasVisualizer.mediumVisualizer signalColor "\"dark\""
attr enum light,dark
par Crocetta.visualizer.canvasVisualizer.mediumVisualizer signalPropagationAnimationSpeed "nan "
par Crocetta.visualizer.canvasVisualizer.mediumVisualizer signalPropagationAnimationTime 1s
attr unit s
par Crocetta.visualizer.canvasVisualizer.mediumVisualizer signalPropagationAdditionalTime 0s
attr unit s
par Crocetta.visualizer.canvasVisualizer.mediumVisualizer signalTransmissionAnimationSpeed "nan "
par Crocetta.visualizer.canvasVisualizer.mediumVisualizer signalTransmissionAnimationTime 1s
attr unit s
par Crocetta.visualizer.canvasVisualizer.mediumVisualizer signalAnimationSpeedChangeTimeMode "\"realTime\""
attr enum realTime,animationTime,simulationTime
par Crocetta.visualizer.canvasVisualizer.mediumVisualizer signalAnimationSpeedChangeTime 1s
attr unit s
par Crocetta.visualizer.canvasVisualizer.mediumVisualizer displaySignalDepartures false
par Crocetta.visualizer.canvasVisualizer.mediumVisualizer signalDepartureImage "\"misc/signal_departure.png\""
par Crocetta.visualizer.canvasVisualizer.mediumVisualizer signalDeparturePlacementHint "\"topCenter\""
par Crocetta.visualizer.canvasVisualizer.mediumVisualizer signalDeparturePlacementPriority 1
par Crocetta.visualizer.canvasVisualizer.mediumVisualizer displaySignalArrivals false
par Crocetta.visualizer.canvasVisualizer.mediumVisualizer signalArrivalImage "\"misc/signal_arrival.png\""
par Crocetta.visualizer.canvasVisualizer.mediumVisualizer signalArrivalPlacementHint "\"topCenter\""
par Crocetta.visualizer.canvasVisualizer.mediumVisualizer signalArrivalPlacementPriority -1
par Crocetta.visualizer.canvasVisualizer.mediumVisualizer displayCommunicationRanges false
par Crocetta.visualizer.canvasVisualizer.mediumVisualizer communicationRangeLineColor "\"blue\""
par Crocetta.visualizer.canvasVisualizer.mediumVisualizer communicationRangeLineStyle "\"solid\""
par Crocetta.visualizer.canvasVisualizer.mediumVisualizer communicationRangeLineWidth 1
par Crocetta.visualizer.canvasVisualizer.mediumVisualizer displayInterferenceRanges false
par Crocetta.visualizer.canvasVisualizer.mediumVisualizer interferenceRangeLineColor "\"gray\""
par Crocetta.visualizer.canvasVisualizer.mediumVisualizer interferenceRangeLineStyle "\"solid\""
par Crocetta.visualizer.canvasVisualizer.mediumVisualizer interferenceRangeLineWidth 1
par Crocetta.visualizer.canvasVisualizer.mediumVisualizer autoPowerAxis true
par Crocetta.visualizer.canvasVisualizer.mediumVisualizer signalMinPower "inf dBmW"
attr unit dBmW
par Crocetta.visualizer.canvasVisualizer.mediumVisualizer signalMaxPower 0dBmW
attr unit dBmW
par Crocetta.visualizer.canvasVisualizer.mediumVisualizer signalMinPowerDensity "inf dBmWpMHz"
attr unit dBmWpMHz
par Crocetta.visualizer.canvasVisualizer.mediumVisualizer signalMaxPowerDensity "-inf dBmWpMHz"
attr unit dBmWpMHz
par Crocetta.visualizer.canvasVisualizer.mediumVisualizer autoTimeAxis true
par Crocetta.visualizer.canvasVisualizer.mediumVisualizer signalMinTime 0s
attr unit s
par Crocetta.visualizer.canvasVisualizer.mediumVisualizer signalMaxTime 0s
attr unit s
par Crocetta.visualizer.canvasVisualizer.mediumVisualizer autoFrequencyAxis true
par Crocetta.visualizer.canvasVisualizer.mediumVisualizer signalMinFrequency "inf Hz"
attr unit Hz
par Crocetta.visualizer.canvasVisualizer.mediumVisualizer signalMaxFrequency "-inf Hz"
attr unit Hz
par Crocetta.visualizer.canvasVisualizer.mediumVisualizer displayMainPowerDensityMap false
par Crocetta.visualizer.canvasVisualizer.mediumVisualizer mainPowerDensityMapPixmapDensity 1
par Crocetta.visualizer.canvasVisualizer.mediumVisualizer mainPowerDensityMapMinX 0
par Crocetta.visualizer.canvasVisualizer.mediumVisualizer mainPowerDensityMapMaxX "nan "
par Crocetta.visualizer.canvasVisualizer.mediumVisualizer mainPowerDensityMapMinY 0
par Crocetta.visualizer.canvasVisualizer.mediumVisualizer mainPowerDensityMapMaxY "nan "
par Crocetta.visualizer.canvasVisualizer.mediumVisualizer mainPowerDensityMapZ 0
par Crocetta.visualizer.canvasVisualizer.mediumVisualizer mainPowerDensityMapFigureXTickCount 3
par Crocetta.visualizer.canvasVisualizer.mediumVisualizer mainPowerDensityMapFigureYTickCount 3
par Crocetta.visualizer.canvasVisualizer.mediumVisualizer displayPowerDensityMaps false
par Crocetta.visualizer.canvasVisualizer.mediumVisualizer powerDensityMapMode "\"auto\""
attr enum total,signal,auto
par Crocetta.visualizer.canvasVisualizer.mediumVisualizer powerDensityMapPixelMode "\"mean\""
attr enum sample,partition,mean
par Crocetta.visualizer.canvasVisualizer.mediumVisualizer powerDensityMapApproximationSize 10
par Crocetta.visualizer.canvasVisualizer.mediumVisualizer powerDensityMapCenterFrequency "nan Hz"
attr unit Hz
par Crocetta.visualizer.canvasVisualizer.mediumVisualizer powerDensityMapBandwidth 0Hz
attr unit Hz
par Crocetta.visualizer.canvasVisualizer.mediumVisualizer powerDensityMapFigureWidth 200
par Crocetta.visualizer.canvasVisualizer.mediumVisualizer powerDensityMapFigureHeight 120
par Crocetta.visualizer.canvasVisualizer.mediumVisualizer powerDensityMapPixmapWidth 200
par Crocetta.visualizer.canvasVisualizer.mediumVisualizer powerDensityMapPixmapHeight 120
par Crocetta.visualizer.canvasVisualizer.mediumVisualizer powerDensityMapZ 0
par Crocetta.visualizer.canvasVisualizer.mediumVisualizer powerDensityMapFigureXTickCount 3
par Crocetta.visualizer.canvasVisualizer.mediumVisualizer powerDensityMapFigureYTickCount 3
par Crocetta.visualizer.canvasVisualizer.mediumVisualizer displaySpectrums false
par Crocetta.visualizer.canvasVisualizer.mediumVisualizer spectrumMode "\"auto\""
attr enum total,signal,auto
par Crocetta.visualizer.canvasVisualizer.mediumVisualizer spectrumFigureWidth 200
par Crocetta.visualizer.canvasVisualizer.mediumVisualizer spectrumFigureHeight 120
par Crocetta.visualizer.canvasVisualizer.mediumVisualizer spectrumFigureXTickCount 3
par Crocetta.visualizer.canvasVisualizer.mediumVisualizer spectrumFigureYTickCount 5
par Crocetta.visualizer.canvasVisualizer.mediumVisualizer spectrumFigureInterpolationSize 5
par Crocetta.visualizer.canvasVisualizer.mediumVisualizer spectrumPlacementHint "\"bottomCenter\""
par Crocetta.visualizer.canvasVisualizer.mediumVisualizer spectrumPlacementPriority -1
par Crocetta.visualizer.canvasVisualizer.mediumVisualizer displaySpectrograms false
par Crocetta.visualizer.canvasVisualizer.mediumVisualizer spectrogramMode "\"auto\""
attr enum total,signal,auto
par Crocetta.visualizer.canvasVisualizer.mediumVisualizer spectrogramPixelMode "\"mean\""
attr enum sample,partition,mean
par Crocetta.visualizer.canvasVisualizer.mediumVisualizer spectrogramFigureWidth 200
par Crocetta.visualizer.canvasVisualizer.mediumVisualizer spectrogramFigureHeight 120
par Crocetta.visualizer.canvasVisualizer.mediumVisualizer spectrogramPixmapWidth 200
par Crocetta.visualizer.canvasVisualizer.mediumVisualizer spectrogramPixmapHeight 120
par Crocetta.visualizer.canvasVisualizer.mediumVisualizer spectrogramFigureXTickCount 3
par Crocetta.visualizer.canvasVisualizer.mediumVisualizer spectrogramFigureYTickCount 5
par Crocetta.visualizer.canvasVisualizer.mediumVisualizer spectrogramPlacementHint "\"bottomCenter\""
par Crocetta.visualizer.canvasVisualizer.mediumVisualizer spectrogramPlacementPriority -1
par Crocetta.visualizer.canvasVisualizer.mediumVisualizer zIndex 0
par Crocetta.visualizer.canvasVisualizer.mediumVisualizer signalShape "\"ring\""
attr enum ring,sphere
par Crocetta.visualizer.canvasVisualizer.mediumVisualizer signalOpacity 0.5
par Crocetta.visualizer.canvasVisualizer.mediumVisualizer signalRingCount 20
par Crocetta.visualizer.canvasVisualizer.mediumVisualizer signalRingSize 50m
attr unit m
par Crocetta.visualizer.canvasVisualizer.mediumVisualizer signalFadingDistance 50m
attr unit m
par Crocetta.visualizer.canvasVisualizer.mediumVisualizer signalFadingFactor 1.2
par Crocetta.visualizer.canvasVisualizer.mediumVisualizer signalWaveCount 20
par Crocetta.visualizer.canvasVisualizer.mediumVisualizer signalWaveLength 50m
attr unit m
par Crocetta.visualizer.canvasVisualizer.mediumVisualizer signalWaveWidth 10m
attr unit m
par Crocetta.visualizer.canvasVisualizer.mediumVisualizer signalWaveFadingAnimationSpeedFactor 1
par Crocetta.visualizer.canvasVisualizer.mediumVisualizer displayCommunicationHeat false
par Crocetta.visualizer.canvasVisualizer.obstacleLossVisualizer typename "\"inet.visualizer.canvas.physicallayer.TracingObstacleLossCanvasVisualizer\""
par Crocetta.visualizer.canvasVisualizer.obstacleLossVisualizer visualizationTargetModule "\"^.^.^\""
par Crocetta.visualizer.canvasVisualizer.obstacleLossVisualizer visualizationSubjectModule "\"^.^.^\""
par Crocetta.visualizer.canvasVisualizer.obstacleLossVisualizer tags "\"\""
par Crocetta.visualizer.canvasVisualizer.obstacleLossVisualizer displayIntersections false
par Crocetta.visualizer.canvasVisualizer.obstacleLossVisualizer intersectionLineColor "\"red\""
par Crocetta.visualizer.canvasVisualizer.obstacleLossVisualizer intersectionLineStyle "\"solid\""
par Crocetta.visualizer.canvasVisualizer.obstacleLossVisualizer intersectionLineWidth 1
par Crocetta.visualizer.canvasVisualizer.obstacleLossVisualizer displayFaceNormalVectors false
par Crocetta.visualizer.canvasVisualizer.obstacleLossVisualizer faceNormalLineColor "\"grey\""
par Crocetta.visualizer.canvasVisualizer.obstacleLossVisualizer faceNormalLineStyle "\"solid\""
par Crocetta.visualizer.canvasVisualizer.obstacleLossVisualizer faceNormalLineWidth 1
par Crocetta.visualizer.canvasVisualizer.obstacleLossVisualizer fadeOutMode "\"realTime\""
attr enum realTime,animationTime,simulationTime
par Crocetta.visualizer.canvasVisualizer.obstacleLossVisualizer fadeOutTime 1s
attr unit s
par Crocetta.visualizer.canvasVisualizer.obstacleLossVisualizer fadeOutAnimationSpeed 0
par Crocetta.visualizer.canvasVisualizer.obstacleLossVisualizer zIndex 0
par Crocetta.visualizer.canvasVisualizer.packetDropVisualizer typename "\"inet.visualizer.canvas.common.PacketDropCanvasVisualizer\""
par Crocetta.visualizer.canvasVisualizer.packetDropVisualizer visualizationTargetModule "\"^.^.^\""
par Crocetta.visualizer.canvasVisualizer.packetDropVisualizer visualizationSubjectModule "\"^.^.^\""
par Crocetta.visualizer.canvasVisualizer.packetDropVisualizer tags "\"\""
par Crocetta.visualizer.canvasVisualizer.packetDropVisualizer displayPacketDrops false
par Crocetta.visualizer.canvasVisualizer.packetDropVisualizer nodeFilter "\"*\""
par Crocetta.visualizer.canvasVisualizer.packetDropVisualizer interfaceFilter "\"*\""
par Crocetta.visualizer.canvasVisualizer.packetDropVisualizer packetFilter "\"*\""
par Crocetta.visualizer.canvasVisualizer.packetDropVisualizer packetDataFilter "\"*\""
par Crocetta.visualizer.canvasVisualizer.packetDropVisualizer detailsFilter "\"*\""
par Crocetta.visualizer.canvasVisualizer.packetDropVisualizer icon "\"msg/packet_s\""
par Crocetta.visualizer.canvasVisualizer.packetDropVisualizer iconTintAmount 1
par Crocetta.visualizer.canvasVisualizer.packetDropVisualizer iconTintColor "\"dark\""
par Crocetta.visualizer.canvasVisualizer.packetDropVisualizer labelFormat "\"%n\""
par Crocetta.visualizer.canvasVisualizer.packetDropVisualizer labelFont "\"<default>\""
par Crocetta.visualizer.canvasVisualizer.packetDropVisualizer labelColor "\"black\""
par Crocetta.visualizer.canvasVisualizer.packetDropVisualizer fadeOutMode "\"realTime\""
attr enum realTime,animationTime,simulationTime
par Crocetta.visualizer.canvasVisualizer.packetDropVisualizer fadeOutTime 1s
attr unit s
par Crocetta.visualizer.canvasVisualizer.packetDropVisualizer fadeOutAnimationSpeed 0
par Crocetta.visualizer.canvasVisualizer.packetDropVisualizer zIndex 10
par Crocetta.visualizer.canvasVisualizer.packetDropVisualizer dx 32
par Crocetta.visualizer.canvasVisualizer.packetDropVisualizer dy 64
par Crocetta.visualizer.canvasVisualizer.packetFlowVisualizer typename "\"inet.visualizer.canvas.flow.PacketFlowCanvasVisualizer\""
par Crocetta.visualizer.canvasVisualizer.packetFlowVisualizer visualizationTargetModule "\"^.^.^\""
par Crocetta.visualizer.canvasVisualizer.packetFlowVisualizer visualizationSubjectModule "\"^.^.^\""
par Crocetta.visualizer.canvasVisualizer.packetFlowVisualizer tags "\"\""
par Crocetta.visualizer.canvasVisualizer.packetFlowVisualizer displayRoutes false
par Crocetta.visualizer.canvasVisualizer.packetFlowVisualizer startPathSignal "\"packetFlowStarted\""
par Crocetta.visualizer.canvasVisualizer.packetFlowVisualizer extendPathSignal "\"packetReceivedFromLower\""
par Crocetta.visualizer.canvasVisualizer.packetFlowVisualizer endPathSignal "\"packetFlowEnded\""
par Crocetta.visualizer.canvasVisualizer.packetFlowVisualizer nodeFilter "\"*\""
par Crocetta.visualizer.canvasVisualizer.packetFlowVisualizer packetFilter "\"*\""
par Crocetta.visualizer.canvasVisualizer.packetFlowVisualizer packetDataFilter "\"*\""
par Crocetta.visualizer.canvasVisualizer.packetFlowVisualizer lineColor "\"dark\""
attr enum light,dark
par Crocetta.visualizer.canvasVisualizer.packetFlowVisualizer lineStyle "\"dashed\""
par Crocetta.visualizer.canvasVisualizer.packetFlowVisualizer lineWidth 3
par Crocetta.visualizer.canvasVisualizer.packetFlowVisualizer lineSmooth false
par Crocetta.visualizer.canvasVisualizer.packetFlowVisualizer lineShift 16
par Crocetta.visualizer.canvasVisualizer.packetFlowVisualizer lineShiftMode "\"normal\""
par Crocetta.visualizer.canvasVisualizer.packetFlowVisualizer lineContactSpacing 3
par Crocetta.visualizer.canvasVisualizer.packetFlowVisualizer lineContactMode "\"rectangular\""
attr enum circular,rectangular
par Crocetta.visualizer.canvasVisualizer.packetFlowVisualizer labelFormat "\"%L %p pk (%l)\""
par Crocetta.visualizer.canvasVisualizer.packetFlowVisualizer labelFont "\"<default>, 8px\""
par Crocetta.visualizer.canvasVisualizer.packetFlowVisualizer labelColor "\"\""
par Crocetta.visualizer.canvasVisualizer.packetFlowVisualizer fadeOutMode "\"realTime\""
attr enum realTime,animationTime,simulationTime
par Crocetta.visualizer.canvasVisualizer.packetFlowVisualizer fadeOutTime 0s
attr unit s
par Crocetta.visualizer.canvasVisualizer.packetFlowVisualizer fadeOutAnimationSpeed 0
par Crocetta.visualizer.canvasVisualizer.packetFlowVisualizer zIndex 4
par Crocetta.visualizer.canvasVisualizer.queueVisualizer typename "\"inet.visualizer.canvas.common.QueueCanvasVisualizer\""
par Crocetta.visualizer.canvasVisualizer.queueVisualizer visualizationTargetModule "\"^.^.^\""
par Crocetta.visualizer.canvasVisualizer.queueVisualizer visualizationSubjectModule "\"^.^.^\""
par Crocetta.visualizer.canvasVisualizer.queueVisualizer tags "\"\""
par Crocetta.visualizer.canvasVisualizer.queueVisualizer networkNodeVisualizerModule "\"^.networkNodeVisualizer\""
par Crocetta.visualizer.canvasVisualizer.queueVisualizer displayQueues false
par Crocetta.visualizer.canvasVisualizer.queueVisualizer queueFilter "\"**\""
par Crocetta.visualizer.canvasVisualizer.queueVisualizer color "\"blue\""
par Crocetta.visualizer.canvasVisualizer.queueVisualizer width 8
par Crocetta.visualizer.canvasVisualizer.queueVisualizer height 24
par Crocetta.visualizer.canvasVisualizer.queueVisualizer spacing 2
par Crocetta.visualizer.canvasVisualizer.queueVisualizer placementHint "\"right\""
par Crocetta.visualizer.canvasVisualizer.queueVisualizer placementPriority 0
par Crocetta.visualizer.canvasVisualizer.queueVisualizer zIndex 10
par Crocetta.visualizer.canvasVisualizer.radioVisualizer typename "\"inet.visualizer.canvas.physicallayer.RadioCanvasVisualizer\""
par Crocetta.visualizer.canvasVisualizer.radioVisualizer visualizationTargetModule "\"^.^.^\""
par Crocetta.visualizer.canvasVisualizer.radioVisualizer visualizationSubjectModule "\"^.^.^\""
par Crocetta.visualizer.canvasVisualizer.radioVisualizer tags "\"\""
par Crocetta.visualizer.canvasVisualizer.radioVisualizer networkNodeVisualizerModule "\"^.networkNodeVisualizer\""
par Crocetta.visualizer.canvasVisualizer.radioVisualizer displayRadios false
par Crocetta.visualizer.canvasVisualizer.radioVisualizer displayRadioMode true
par Crocetta.visualizer.canvasVisualizer.radioVisualizer displayReceptionState true
par Crocetta.visualizer.canvasVisualizer.radioVisualizer displayTransmissionState true
par Crocetta.visualizer.canvasVisualizer.radioVisualizer displayAntennaLobes false
par Crocetta.visualizer.canvasVisualizer.radioVisualizer radioFilter "\"**\""
par Crocetta.visualizer.canvasVisualizer.radioVisualizer radioModeImages "\"block/process_vs block/timer_vs block/wrx_vs block/wtx_vs block/wrxtx_vs block/cogwheel_vs\""
par Crocetta.visualizer.canvasVisualizer.radioVisualizer receptionStateImages "\"- - misc/receiving misc/receiving\""
par Crocetta.visualizer.canvasVisualizer.radioVisualizer transmissionStateImages "\"- - misc/transmitting\""
par Crocetta.visualizer.canvasVisualizer.radioVisualizer width 16
par Crocetta.visualizer.canvasVisualizer.radioVisualizer height 16
par Crocetta.visualizer.canvasVisualizer.radioVisualizer placementHint "\"bottomRight\""
par Crocetta.visualizer.canvasVisualizer.radioVisualizer placementPriority 0
par Crocetta.visualizer.canvasVisualizer.radioVisualizer antennaLobeNormalize false
par Crocetta.visualizer.canvasVisualizer.radioVisualizer antennaLobeRelativeLabels false
par Crocetta.visualizer.canvasVisualizer.radioVisualizer antennaLobePlaneGlobal true
par Crocetta.visualizer.canvasVisualizer.radioVisualizer antennaLobePlane "\"view\""
attr enum view,xy,xz,yz
par Crocetta.visualizer.canvasVisualizer.radioVisualizer antennaLobeMode "\"logarithmic\""
attr enum logarithmic,linear
par Crocetta.visualizer.canvasVisualizer.radioVisualizer antennaLobeLogarithmicBase 10
par Crocetta.visualizer.canvasVisualizer.radioVisualizer antennaLobeLogarithmicScale 100
par Crocetta.visualizer.canvasVisualizer.radioVisualizer antennaLobeRadius 100
par Crocetta.visualizer.canvasVisualizer.radioVisualizer antennaLobeStep 10deg
attr unit deg
par Crocetta.visualizer.canvasVisualizer.radioVisualizer antennaLobeOpacity 0.25
par Crocetta.visualizer.canvasVisualizer.radioVisualizer antennaLobeLineSmooth true
par Crocetta.visualizer.canvasVisualizer.radioVisualizer antennaLobeLineColor "\"black\""
par Crocetta.visualizer.canvasVisualizer.radioVisualizer antennaLobeLineStyle "\"solid\""
par Crocetta.visualizer.canvasVisualizer.radioVisualizer antennaLobeLineWidth 1
par Crocetta.visualizer.canvasVisualizer.radioVisualizer antennaLobeFillColor "\"white\""
par Crocetta.visualizer.canvasVisualizer.radioVisualizer zIndex 10
par Crocetta.visualizer.canvasVisualizer.physicalLinkVisualizer typename "\"inet.visualizer.canvas.physicallayer.PhysicalLinkCanvasVisualizer\""
par Crocetta.visualizer.canvasVisualizer.physicalLinkVisualizer visualizationTargetModule "\"^.^.^\""
par Crocetta.visualizer.canvasVisualizer.physicalLinkVisualizer visualizationSubjectModule "\"^.^.^\""
par Crocetta.visualizer.canvasVisualizer.physicalLinkVisualizer tags "\"\""
par Crocetta.visualizer.canvasVisualizer.physicalLinkVisualizer displayLinks false
par Crocetta.visualizer.canvasVisualizer.physicalLinkVisualizer activityLevel "\"service\""
attr enum service,peer,protocol
par Crocetta.visualizer.canvasVisualizer.physicalLinkVisualizer nodeFilter "\"*\""
par Crocetta.visualizer.canvasVisualizer.physicalLinkVisualizer interfaceFilter "\"*\""
par Crocetta.visualizer.canvasVisualizer.physicalLinkVisualizer packetFilter "\"*\""
par Crocetta.visualizer.canvasVisualizer.physicalLinkVisualizer packetDataFilter "\"*\""
par Crocetta.visualizer.canvasVisualizer.physicalLinkVisualizer lineColor "\"olive\""
par Crocetta.visualizer.canvasVisualizer.physicalLinkVisualizer lineStyle "\"dotted\""
par Crocetta.visualizer.canvasVisualizer.physicalLinkVisualizer lineWidth 3
par Crocetta.visualizer.canvasVisualizer.physicalLinkVisualizer lineShift 16
par Crocetta.visualizer.canvasVisualizer.physicalLinkVisualizer lineShiftMode "\"normal\""
par Crocetta.visualizer.canvasVisualizer.physicalLinkVisualizer lineContactSpacing 3
par Crocetta.visualizer.canvasVisualizer.physicalLinkVisualizer lineContactMode "\"rectangular\""
attr enum circular,rectangular
par Crocetta.visualizer.canvasVisualizer.physicalLinkVisualizer labelFormat "\"%n\""
par Crocetta.visualizer.canvasVisualizer.physicalLinkVisualizer labelFont "\"<default>, 8px\""
par Crocetta.visualizer.canvasVisualizer.physicalLinkVisualizer labelColor "\"olive\""
par Crocetta.visualizer.canvasVisualizer.physicalLinkVisualizer fadeOutMode "\"realTime\""
attr enum realTime,animationTime,simulationTime
par Crocetta.visualizer.canvasVisualizer.physicalLinkVisualizer fadeOutTime 1s
attr unit s
par Crocetta.visualizer.canvasVisualizer.physicalLinkVisualizer fadeOutAnimationSpeed 0
par Crocetta.visualizer.canvasVisualizer.physicalLinkVisualizer holdAnimationTime 0s
attr unit s
par Crocetta.visualizer.canvasVisualizer.physicalLinkVisualizer zIndex 1
par Crocetta.visualizer.canvasVisualizer.interfaceTableVisualizer typename "\"inet.visualizer.canvas.linklayer.InterfaceTableCanvasVisualizer\""
par Crocetta.visualizer.canvasVisualizer.interfaceTableVisualizer visualizationTargetModule "\"^.^.^\""
par Crocetta.visualizer.canvasVisualizer.interfaceTableVisualizer visualizationSubjectModule "\"^.^.^\""
par Crocetta.visualizer.canvasVisualizer.interfaceTableVisualizer tags "\"\""
par Crocetta.visualizer.canvasVisualizer.interfaceTableVisualizer networkNodeVisualizerModule "\"^.networkNodeVisualizer\""
par Crocetta.visualizer.canvasVisualizer.interfaceTableVisualizer displayInterfaceTables false
par Crocetta.visualizer.canvasVisualizer.interfaceTableVisualizer displayWiredInterfacesAtConnections true
par Crocetta.visualizer.canvasVisualizer.interfaceTableVisualizer displayBackground false
par Crocetta.visualizer.canvasVisualizer.interfaceTableVisualizer nodeFilter "\"*\""
par Crocetta.visualizer.canvasVisualizer.interfaceTableVisualizer interfaceFilter "\"not(lo*)\""
par Crocetta.visualizer.canvasVisualizer.interfaceTableVisualizer format "\"%N %\\\\%a/%l\""
par Crocetta.visualizer.canvasVisualizer.interfaceTableVisualizer placementHint "\"top\""
par Crocetta.visualizer.canvasVisualizer.interfaceTableVisualizer placementPriority 0
par Crocetta.visualizer.canvasVisualizer.interfaceTableVisualizer font "\"<default>\""
par Crocetta.visualizer.canvasVisualizer.interfaceTableVisualizer textColor "\"#005030\""
par Crocetta.visualizer.canvasVisualizer.interfaceTableVisualizer backgroundColor "\"white\""
par Crocetta.visualizer.canvasVisualizer.interfaceTableVisualizer opacity 1
par Crocetta.visualizer.canvasVisualizer.interfaceTableVisualizer zIndex 10
par Crocetta.visualizer.canvasVisualizer.dataLinkVisualizer typename "\"inet.visualizer.canvas.linklayer.DataLinkCanvasVisualizer\""
par Crocetta.visualizer.canvasVisualizer.dataLinkVisualizer visualizationTargetModule "\"^.^.^\""
par Crocetta.visualizer.canvasVisualizer.dataLinkVisualizer visualizationSubjectModule "\"^.^.^\""
par Crocetta.visualizer.canvasVisualizer.dataLinkVisualizer tags "\"\""
par Crocetta.visualizer.canvasVisualizer.dataLinkVisualizer displayLinks false
par Crocetta.visualizer.canvasVisualizer.dataLinkVisualizer activityLevel "\"service\""
attr enum service,peer,protocol
par Crocetta.visualizer.canvasVisualizer.dataLinkVisualizer nodeFilter "\"*\""
par Crocetta.visualizer.canvasVisualizer.dataLinkVisualizer interfaceFilter "\"*\""
par Crocetta.visualizer.canvasVisualizer.dataLinkVisualizer packetFilter "\"*\""
par Crocetta.visualizer.canvasVisualizer.dataLinkVisualizer packetDataFilter "\"*\""
par Crocetta.visualizer.canvasVisualizer.dataLinkVisualizer lineColor "\"darkcyan\""
par Crocetta.visualizer.canvasVisualizer.dataLinkVisualizer lineStyle "\"solid\""
par Crocetta.visualizer.canvasVisualizer.dataLinkVisualizer lineWidth 3
par Crocetta.visualizer.canvasVisualizer.dataLinkVisualizer lineShift 16
par Crocetta.visualizer.canvasVisualizer.dataLinkVisualizer lineShiftMode "\"normal\""
par Crocetta.visualizer.canvasVisualizer.dataLinkVisualizer lineContactSpacing 3
par Crocetta.visualizer.canvasVisualizer.dataLinkVisualizer lineContactMode "\"rectangular\""
attr enum circular,rectangular
par Crocetta.visualizer.canvasVisualizer.dataLinkVisualizer labelFormat "\"%n\""
par Crocetta.visualizer.canvasVisualizer.dataLinkVisualizer labelFont "\"<default>, 8px\""
par Crocetta.visualizer.canvasVisualizer.dataLinkVisualizer labelColor "\"darkcyan\""
par Crocetta.visualizer.canvasVisualizer.dataLinkVisualizer fadeOutMode "\"realTime\""
attr enum realTime,animationTime,simulationTime
par Crocetta.visualizer.canvasVisualizer.dataLinkVisualizer fadeOutTime 1s
attr unit s
par Crocetta.visualizer.canvasVisualizer.dataLinkVisualizer fadeOutAnimationSpeed 0
par Crocetta.visualizer.canvasVisualizer.dataLinkVisualizer holdAnimationTime 0s
attr unit s
par Crocetta.visualizer.canvasVisualizer.dataLinkVisualizer zIndex 2
par Crocetta.visualizer.canvasVisualizer.linkBreakVisualizer typename "\"inet.visualizer.canvas.linklayer.LinkBreakCanvasVisualizer\""
par Crocetta.visualizer.canvasVisualizer.linkBreakVisualizer visualizationTargetModule "\"^.^.^\""
par Crocetta.visualizer.canvasVisualizer.linkBreakVisualizer visualizationSubjectModule "\"^.^.^\""
par Crocetta.visualizer.canvasVisualizer.linkBreakVisualizer tags "\"\""
par Crocetta.visualizer.canvasVisualizer.linkBreakVisualizer displayLinkBreaks false
par Crocetta.visualizer.canvasVisualizer.linkBreakVisualizer nodeFilter "\"*\""
par Crocetta.visualizer.canvasVisualizer.linkBreakVisualizer interfaceFilter "\"*\""
par Crocetta.visualizer.canvasVisualizer.linkBreakVisualizer packetFilter "\"*\""
par Crocetta.visualizer.canvasVisualizer.linkBreakVisualizer packetDataFilter "\"*\""
par Crocetta.visualizer.canvasVisualizer.linkBreakVisualizer icon "\"status/stop\""
par Crocetta.visualizer.canvasVisualizer.linkBreakVisualizer iconTintAmount 0
par Crocetta.visualizer.canvasVisualizer.linkBreakVisualizer iconTintColor "\"\""
par Crocetta.visualizer.canvasVisualizer.linkBreakVisualizer fadeOutMode "\"realTime\""
attr enum realTime,animationTime,simulationTime
par Crocetta.visualizer.canvasVisualizer.linkBreakVisualizer fadeOutTime 1s
attr unit s
par Crocetta.visualizer.canvasVisualizer.linkBreakVisualizer fadeOutAnimationSpeed 0
par Crocetta.visualizer.canvasVisualizer.linkBreakVisualizer zIndex 2
par Crocetta.visualizer.canvasVisualizer.ieee80211Visualizer typename "\"inet.visualizer.canvas.linklayer.Ieee80211CanvasVisualizer\""
par Crocetta.visualizer.canvasVisualizer.ieee80211Visualizer visualizationTargetModule "\"^.^.^\""
par Crocetta.visualizer.canvasVisualizer.ieee80211Visualizer visualizationSubjectModule "\"^.^.^\""
par Crocetta.visualizer.canvasVisualizer.ieee80211Visualizer tags "\"\""
par Crocetta.visualizer.canvasVisualizer.ieee80211Visualizer networkNodeVisualizerModule "\"^.networkNodeVisualizer\""
par Crocetta.visualizer.canvasVisualizer.ieee80211Visualizer displayAssociations false
par Crocetta.visualizer.canvasVisualizer.ieee80211Visualizer nodeFilter "\"*\""
par Crocetta.visualizer.canvasVisualizer.ieee80211Visualizer interfaceFilter "\"*\""
par Crocetta.visualizer.canvasVisualizer.ieee80211Visualizer minPower -85dBm
attr unit dBm
par Crocetta.visualizer.canvasVisualizer.ieee80211Visualizer maxPower -50dBm
attr unit dBm
par Crocetta.visualizer.canvasVisualizer.ieee80211Visualizer icons "\"misc/signal_power_0 misc/signal_power_1 misc/signal_power_2 misc/signal_power_3\""
par Crocetta.visualizer.canvasVisualizer.ieee80211Visualizer iconColor "\"dark\""
attr enum light,dark
par Crocetta.visualizer.canvasVisualizer.ieee80211Visualizer labelFont "\"<default>\""
par Crocetta.visualizer.canvasVisualizer.ieee80211Visualizer labelColor "\"black\""
par Crocetta.visualizer.canvasVisualizer.ieee80211Visualizer placementHint "\"top\""
par Crocetta.visualizer.canvasVisualizer.ieee80211Visualizer placementPriority 0
par Crocetta.visualizer.canvasVisualizer.ieee80211Visualizer zIndex 2
par Crocetta.visualizer.canvasVisualizer.networkRouteVisualizer typename "\"inet.visualizer.canvas.networklayer.NetworkRouteCanvasVisualizer\""
par Crocetta.visualizer.canvasVisualizer.networkRouteVisualizer visualizationTargetModule "\"^.^.^\""
par Crocetta.visualizer.canvasVisualizer.networkRouteVisualizer visualizationSubjectModule "\"^.^.^\""
par Crocetta.visualizer.canvasVisualizer.networkRouteVisualizer tags "\"\""
par Crocetta.visualizer.canvasVisualizer.networkRouteVisualizer displayRoutes false
par Crocetta.visualizer.canvasVisualizer.networkRouteVisualizer startPathSignal "\"packetReceivedFromUpper\""
par Crocetta.visualizer.canvasVisualizer.networkRouteVisualizer extendPathSignal "\"packetReceivedFromLower\""
par Crocetta.visualizer.canvasVisualizer.networkRouteVisualizer endPathSignal "\"packetSentToUpper\""
par Crocetta.visualizer.canvasVisualizer.networkRouteVisualizer nodeFilter "\"*\""
par Crocetta.visualizer.canvasVisualizer.networkRouteVisualizer packetFilter "\"*\""
par Crocetta.visualizer.canvasVisualizer.networkRouteVisualizer packetDataFilter "\"*\""
par Crocetta.visualizer.canvasVisualizer.networkRouteVisualizer lineColor "\"dark\""
attr enum light,dark
par Crocetta.visualizer.canvasVisualizer.networkRouteVisualizer lineStyle "\"solid\""
par Crocetta.visualizer.canvasVisualizer.networkRouteVisualizer lineWidth 3
par Crocetta.visualizer.canvasVisualizer.networkRouteVisualizer lineSmooth false
par Crocetta.visualizer.canvasVisualizer.networkRouteVisualizer lineShift 16
par Crocetta.visualizer.canvasVisualizer.networkRouteVisualizer lineShiftMode "\"normal\""
par Crocetta.visualizer.canvasVisualizer.networkRouteVisualizer lineContactSpacing 3
par Crocetta.visualizer.canvasVisualizer.networkRouteVisualizer lineContactMode "\"rectangular\""
attr enum circular,rectangular
par Crocetta.visualizer.canvasVisualizer.networkRouteVisualizer labelFormat "\"%n\""
par Crocetta.visualizer.canvasVisualizer.networkRouteVisualizer labelFont "\"<default>, 8px\""
par Crocetta.visualizer.canvasVisualizer.networkRouteVisualizer labelColor "\"\""
par Crocetta.visualizer.canvasVisualizer.networkRouteVisualizer fadeOutMode "\"realTime\""
attr enum realTime,animationTime,simulationTime
par Crocetta.visualizer.canvasVisualizer.networkRouteVisualizer fadeOutTime 1s
attr unit s
par Crocetta.visualizer.canvasVisualizer.networkRouteVisualizer fadeOutAnimationSpeed 0
par Crocetta.visualizer.canvasVisualizer.networkRouteVisualizer zIndex 3
[...]
attr title "rlc Packet Loss, mean"
attr unit ""
scalar Crocetta.car[8].cellularNic.nrRlc.am rlcPduPacketLossUl:mean -nan
attr source rlcPduPacketLossUl
attr title "rlc Packet Loss, mean"
attr unit ""
scalar Crocetta.car[8].cellularNic.nrRlc.am rlcPduThroughputUl:mean -nan
attr source rlcPduThroughputUl
attr title "Throughput at the rlc layer UL, mean"
attr unit Bps
scalar Crocetta.car[8].cellularNic.nrRlc.am rlcPduDelayUl:mean -nan
attr source rlcPduDelayUl
attr title "Delay at the rlc layer UL, mean"
attr unit s
scalar Crocetta.car[8].cellularNic.nrRlc.am rlcPduThroughputDl:mean -nan
attr source rlcPduThroughputDl
attr title "Throughput at the rlc layer DL, mean"
attr unit Bps
scalar Crocetta.car[8].cellularNic.nrRlc.am rlcPduDelayDl:mean -nan
attr source rlcPduDelayDl
attr title "Delay at the rlc layer UL, mean"
attr unit s
scalar Crocetta.car[8].cellularNic.nrRlc.am rlcCellPacketLossUl:mean -nan
attr source rlcCellPacketLossUl
attr title "rlc Cell Packet Loss, mean"
attr unit ""
scalar Crocetta.car[8].cellularNic.nrRlc.am rlcCellPacketLossDl:mean -nan
attr source rlcCellPacketLossDl
attr title "rlc Cell Packet Loss, mean"
attr unit ""
scalar Crocetta.car[8].cellularNic.nrRlc.am rlcCellThroughputDl:mean -nan
attr source rlcCellThroughputDl
attr title "Cell Throughput at the rlc layer DL, mean"
attr unit Bps
scalar Crocetta.car[8].cellularNic.nrRlc.am rlcCellThroughputUl:mean -nan
attr source rlcCellThroughputUl
attr title "Cell Throughput at the rlc layer UL, mean"
attr unit Bps
scalar Crocetta.car[8].cellularNic.nrRlc.am rlcPacketLossTotal:mean -nan
attr source rlcPacketLossTotal
attr title "rlc Packet Loss, mean"
attr unit ""
scalar Crocetta.car[8].cellularNic.nrRlc.am rlcThroughputUl:mean -nan
attr source rlcThroughputUl
attr title "Throughput at the rlc layer UL, mean"
attr unit Bps
scalar Crocetta.car[8].cellularNic.nrRlc.am rlcDelayUl:mean -nan
attr source rlcDelayUl
attr title "Delay at the rlc layer UL, mean"
attr unit s
scalar Crocetta.car[8].cellularNic.nrRlc.am rlcThroughputDl:mean -nan
attr source rlcThroughputDl
attr title "Throughput at the rlc layer DL, mean"
attr unit Bps
scalar Crocetta.car[8].cellularNic.nrRlc.am rlcDelayDl:mean -nan
attr source rlcDelayDl
attr title "Delay at the rlc layer UL, mean"
attr unit s
scalar Crocetta.car[8].cellularNic.nrRlc.am rlcPacketLossDl:mean -nan
attr source rlcPacketLossDl
attr title "rlc Packet Loss, mean"
attr unit ""
scalar Crocetta.car[8].cellularNic.nrRlc.am rlcPacketLossUl:mean -nan
attr source rlcPacketLossUl
attr title "rlc Packet Loss, mean"
attr unit ""
par Crocetta.car[8].cellularNic.nrRlc.mux typename "\"simu5g.stack.rlc.LteRlcMux\""
par "Crocetta.car[8].cellularNic.nrRlc.UmTxEntity Lcid: 1" typename "\"simu5g.stack.rlc.UmTxEntity\""
par "Crocetta.car[8].cellularNic.nrRlc.UmTxEntity Lcid: 1" fragmentSize 30B
attr unit B
par Crocetta.car[8].cellularNic.nrRlc typename "\"simu5g.stack.rlc.LteRlc\""
par Crocetta.car[8].cellularNic.nrRlc LteRlcUmType "\"LteRlcUm\""
par Crocetta.car[8].cellularNic.nrRlc d2dCapable true
par Crocetta.car[8].cellularNic.nrRlc umType "\"LteRlcUmD2D\""
par Crocetta.car[8].cellularNic.nrMac typename "\"simu5g.stack.mac.NRMacUe\""
par Crocetta.car[8].cellularNic.nrMac interfaceTableModule "\"Crocetta.car[8].interfaceTable\""
par Crocetta.car[8].cellularNic.nrMac queueSize 2097152B
attr unit B
par Crocetta.car[8].cellularNic.nrMac muMimo true
par Crocetta.car[8].cellularNic.nrMac harqProcesses 8
par Crocetta.car[8].cellularNic.nrMac maxHarqRtx 3
par Crocetta.car[8].cellularNic.nrMac harqFbEvaluationTimer 4
par Crocetta.car[8].cellularNic.nrMac statDisplay false
par Crocetta.car[8].cellularNic.nrMac usePreconfiguredTxParams false
par Crocetta.car[8].cellularNic.nrMac d2dCqi 7
scalar Crocetta.car[8].cellularNic.nrMac rcvdD2DModeSwitchNotification:count 0
attr source rcvdD2DModeSwitchNotification
attr title "Reception of mode switch notification (tx side), count"
attr unit ""
scalar Crocetta.car[8].cellularNic.nrMac macThroughputD2D:mean -nan
attr source macThroughputD2D
attr title "Throughput at the MAC layer D2D, mean"
attr unit Bps
scalar Crocetta.car[8].cellularNic.nrMac macDelayD2D:mean -nan
attr source macDelayD2D
attr title "Delay at the MAC layer D2D, mean"
attr unit s
scalar Crocetta.car[8].cellularNic.nrMac macPacketLossD2D:mean -nan
attr source macPacketLossD2D
attr title "Mac Packet Loss D2D, mean"
attr unit ""
scalar Crocetta.car[8].cellularNic.nrMac harqErrorRateD2D:mean -nan
attr source harqErrorRateD2D
attr title "Harq Error Rate D2D, mean"
attr unit ""
scalar Crocetta.car[8].cellularNic.nrMac harqErrorRate_4th_D2D:mean -nan
attr source harqErrorRate_4th_D2D
attr title "Harq Error Rate D2D 4th Tx, mean"
attr unit ""
scalar Crocetta.car[8].cellularNic.nrMac harqErrorRate_3rd_D2D:mean -nan
attr source harqErrorRate_3rd_D2D
attr title "Harq Error Rate D2D 3rd Tx, mean"
attr unit ""
scalar Crocetta.car[8].cellularNic.nrMac harqErrorRate_2nd_D2D:mean -nan
attr source harqErrorRate_2nd_D2D
attr title "Harq Error Rate D2D 2nd Tx, mean"
attr unit ""
scalar Crocetta.car[8].cellularNic.nrMac harqErrorRate_1st_D2D:mean -nan
attr source harqErrorRate_1st_D2D
attr title "Harq Error Rate D2D 1st Tx, mean"
attr unit ""
scalar Crocetta.car[8].cellularNic.nrMac measuredItbs:mean -nan
attr source measuredItbs
attr title "TBS index, mean"
attr unit ""
scalar Crocetta.car[8].cellularNic.nrMac harqErrorRate_4th_Dl:mean -nan
attr source harqErrorRate_4th_Dl
attr title "Harq Error Rate Dl, mean"
attr unit ""
scalar Crocetta.car[8].cellularNic.nrMac harqErrorRate_4th_Ul:mean -nan
attr source harqErrorRate_4th_Ul
attr title "Harq Error Rate Ul, mean"
attr unit ""
scalar Crocetta.car[8].cellularNic.nrMac harqErrorRate_3rd_Dl:mean -nan
attr source harqErrorRate_3rd_Dl
attr title "Harq Error Rate Dl, mean"
attr unit ""
scalar Crocetta.car[8].cellularNic.nrMac harqErrorRate_3rd_Ul:mean -nan
attr source harqErrorRate_3rd_Ul
attr title "Harq Error Rate Ul, mean"
attr unit ""
scalar Crocetta.car[8].cellularNic.nrMac harqErrorRate_2nd_Dl:mean -nan
attr source harqErrorRate_2nd_Dl
attr title "Harq Error Rate Dl, mean"
attr unit ""
scalar Crocetta.car[8].cellularNic.nrMac harqErrorRate_2nd_Ul:mean 0
attr source harqErrorRate_2nd_Ul
attr title "Harq Error Rate Ul, mean"
attr unit ""
scalar Crocetta.car[8].cellularNic.nrMac harqErrorRate_1st_Dl:mean -nan
attr source harqErrorRate_1st_Dl
attr title "Harq Error Rate Dl, mean"
attr unit ""
scalar Crocetta.car[8].cellularNic.nrMac harqErrorRate_1st_Ul:mean 0.0625
attr source harqErrorRate_1st_Ul
attr title "Harq Error Rate Ul, mean"
attr unit ""
scalar Crocetta.car[8].cellularNic.nrMac harqTxAttemptsUl:mean 1.0625
attr source harqTxAttemptsUl
attr title "Harq Tx Attempts Ul, mean"
attr unit ""
scalar Crocetta.car[8].cellularNic.nrMac harqTxAttemptsDl:mean -nan
attr source harqTxAttemptsDl
attr title "Harq Tx Attempts Dl, mean"
attr unit ""
scalar Crocetta.car[8].cellularNic.nrMac harqErrorRateDl:mean -nan
attr source harqErrorRateDl
attr title "Harq Error Rate Dl, mean"
attr unit ""
scalar Crocetta.car[8].cellularNic.nrMac harqErrorRateUl:mean 0.058823529411765
attr source harqErrorRateUl
attr title "Harq Error Rate Ul, mean"
attr unit ""
scalar Crocetta.car[8].cellularNic.nrMac macBufferOverFlowD2D:mean -nan
attr source macBufferOverFlowD2D
attr title "Mac buffer overflow as function of time, mean"
attr unit Byte/s
scalar Crocetta.car[8].cellularNic.nrMac macBufferOverFlowUl:mean -nan
attr source macBufferOverFlowUl
attr title "Mac buffer overflow as function of time, mean"
attr unit Byte/s
scalar Crocetta.car[8].cellularNic.nrMac macBufferOverFlowDl:mean -nan
attr source macBufferOverFlowDl
attr title "Mac buffer overflow as function of time, mean"
attr unit Byte/s
scalar Crocetta.car[8].cellularNic.nrMac macPacketLossDl:mean -nan
attr source macPacketLossDl
attr title "Mac Packet Loss Dl, mean"
attr unit ""
scalar Crocetta.car[8].cellularNic.nrMac macPacketLossUl:mean 0
attr source macPacketLossUl
attr title "Mac Packet Loss Ul, mean"
attr unit ""
scalar Crocetta.car[8].cellularNic.nrMac macCellPacketLossUl:mean -nan
attr source macCellPacketLossUl
attr title "Mac Cell Packet Loss Ul, mean"
attr unit ""
scalar Crocetta.car[8].cellularNic.nrMac macCellPacketLossDl:mean -nan
attr source macCellPacketLossDl
attr title "Mac Cell Packet Loss Dl, mean"
attr unit ""
scalar Crocetta.car[8].cellularNic.nrMac macCellThroughputDl:mean -nan
attr source macCellThroughputDl
attr title "Cell Throughput at the MAC layer DL, mean"
attr unit Bps
scalar Crocetta.car[8].cellularNic.nrMac macCellThroughputUl:mean -nan
attr source macCellThroughputUl
attr title "Cell Throughput at the MAC layer UL, mean"
attr unit Bps
scalar Crocetta.car[8].cellularNic.nrMac macThroughputUl:mean 72.910187471216
attr source macThroughputUl
attr title "Throughput at the MAC layer UL, mean"
attr unit Bps
scalar Crocetta.car[8].cellularNic.nrMac macDelayUl:mean 0.004375
attr source macDelayUl
attr title "Delay at the MAC layer UL, mean"
attr unit s
scalar Crocetta.car[8].cellularNic.nrMac macThroughputDl:mean -nan
attr source macThroughputDl
attr title "Throughput at the MAC layer DL, mean"
attr unit Bps
scalar Crocetta.car[8].cellularNic.nrMac macDelayDl:mean -nan
attr source macDelayDl
attr title "Delay at the MAC layer UL, mean"
attr unit s
scalar Crocetta.car[8].cellularNic.nrMac sentPacketToLowerLayer:count 67
attr interpolationmode none
attr source sentPacketToLowerLayer
scalar Crocetta.car[8].cellularNic.nrMac sentPacketToLowerLayer:sum(packetBytes) 2515
attr interpolationmode none
attr source sentPacketToLowerLayer
scalar Crocetta.car[8].cellularNic.nrMac sentPacketToUpperLayer:count 32
attr interpolationmode none
attr source sentPacketToUpperLayer
scalar Crocetta.car[8].cellularNic.nrMac sentPacketToUpperLayer:sum(packetBytes) 32
attr interpolationmode none
attr source sentPacketToUpperLayer
scalar Crocetta.car[8].cellularNic.nrMac receivedPacketFromLowerLayer:count 100
attr interpolationmode none
attr source receivedPacketFromLowerLayer
scalar Crocetta.car[8].cellularNic.nrMac receivedPacketFromLowerLayer:sum(packetBytes) 100
attr interpolationmode none
attr source receivedPacketFromLowerLayer
scalar Crocetta.car[8].cellularNic.nrMac receivedPacketFromUpperLayer:count 65
attr interpolationmode none
attr source receivedPacketFromUpperLayer
scalar Crocetta.car[8].cellularNic.nrMac receivedPacketFromUpperLayer:sum(packetBytes) 4615
attr interpolationmode none
attr source receivedPacketFromUpperLayer
par Crocetta.car[8].cellularNic.nrPhy typename "\"simu5g.stack.phy.NRPhyUe\""
par Crocetta.car[8].cellularNic.nrPhy ueTxPower 26
par Crocetta.car[8].cellularNic.nrPhy eNodeBTxPower 46
par Crocetta.car[8].cellularNic.nrPhy microTxPower 30
par Crocetta.car[8].cellularNic.nrPhy txDirection "\"OMNI\""
par Crocetta.car[8].cellularNic.nrPhy txAngle 0
par Crocetta.car[8].cellularNic.nrPhy dynamicCellAssociation true
par Crocetta.car[8].cellularNic.nrPhy enableHandover true
par Crocetta.car[8].cellularNic.nrPhy handoverLatency 0.05s
attr unit s
par Crocetta.car[8].cellularNic.nrPhy enableMulticastD2DRangeCheck false
par Crocetta.car[8].cellularNic.nrPhy multicastD2DRange 1000m
attr unit m
par Crocetta.car[8].cellularNic.nrPhy minRssiDefault true
par Crocetta.car[8].cellularNic.nrPhy minRssi -99dB
attr unit dB
par Crocetta.car[8].cellularNic.nrPhy d2dTxPower 26
par Crocetta.car[8].cellularNic.nrPhy d2dMulticastCaptureEffect true
par Crocetta.car[8].cellularNic.nrPhy d2dMulticastCaptureEffectFactor "\"RSRP\""
scalar Crocetta.car[8].cellularNic.nrPhy averageCqiD2D:mean -nan
attr source averageCqiD2D
attr title "Average Cqi reported in D2D, mean"
attr unit cqi
scalar Crocetta.car[8].cellularNic.nrPhy averageCqiUl:mean 11.970588235294
attr source averageCqiUl
attr title "Average Cqi reported in UL, mean"
attr unit cqi
scalar Crocetta.car[8].cellularNic.nrPhy averageCqiUl:count 34
attr source averageCqiUl
attr title "Average Cqi reported in UL, count"
attr unit cqi
scalar Crocetta.car[8].cellularNic.nrPhy averageCqiDl:mean -nan
attr source averageCqiDl
attr title "Average Cqi reported in DL, mean"
attr unit cqi
scalar Crocetta.car[8].cellularNic.nrPhy averageCqiDl:count 0
attr source averageCqiDl
attr title "Average Cqi reported in DL, count"
attr unit cqi
par Crocetta.car[8].cellularNic.nrChannelModel[0] typename "\"simu5g.stack.phy.ChannelModel.NRChannelModel\""
par Crocetta.car[8].cellularNic.nrChannelModel[0] componentCarrierIndex 0
par Crocetta.car[8].cellularNic.nrChannelModel[0] shadowing true
par Crocetta.car[8].cellularNic.nrChannelModel[0] scenario "\"URBAN_MACROCELL\""
par Crocetta.car[8].cellularNic.nrChannelModel[0] nodeb_height 25
par Crocetta.car[8].cellularNic.nrChannelModel[0] building_height 20
par Crocetta.car[8].cellularNic.nrChannelModel[0] inside_building false
par Crocetta.car[8].cellularNic.nrChannelModel[0] street_wide 20
par Crocetta.car[8].cellularNic.nrChannelModel[0] ue_height 1.5
par Crocetta.car[8].cellularNic.nrChannelModel[0] tolerateMaxDistViolation false
par Crocetta.car[8].cellularNic.nrChannelModel[0] useTorus false
par Crocetta.car[8].cellularNic.nrChannelModel[0] correlation_distance 50
par Crocetta.car[8].cellularNic.nrChannelModel[0] targetBler 0.01
par Crocetta.car[8].cellularNic.nrChannelModel[0] harqReduction 0.2
par Crocetta.car[8].cellularNic.nrChannelModel[0] lambdaMinTh 0.02
par Crocetta.car[8].cellularNic.nrChannelModel[0] lambdaMaxTh 0.2
par Crocetta.car[8].cellularNic.nrChannelModel[0] lambdaRatioTh 20
par Crocetta.car[8].cellularNic.nrChannelModel[0] antennaGainUe 0
par Crocetta.car[8].cellularNic.nrChannelModel[0] antennGainEnB 18
par Crocetta.car[8].cellularNic.nrChannelModel[0] antennGainMicro 5
par Crocetta.car[8].cellularNic.nrChannelModel[0] thermalNoise -104.5
par Crocetta.car[8].cellularNic.nrChannelModel[0] ue_noise_figure 7
par Crocetta.car[8].cellularNic.nrChannelModel[0] bs_noise_figure 5
par Crocetta.car[8].cellularNic.nrChannelModel[0] cable_loss 2
par Crocetta.car[8].cellularNic.nrChannelModel[0] dynamic_los false
par Crocetta.car[8].cellularNic.nrChannelModel[0] fixed_los false
par Crocetta.car[8].cellularNic.nrChannelModel[0] fading true
par Crocetta.car[8].cellularNic.nrChannelModel[0] fading_type "\"JAKES\""
par Crocetta.car[8].cellularNic.nrChannelModel[0] fading_paths 6
par Crocetta.car[8].cellularNic.nrChannelModel[0] delay_rms 3.63e-07
par Crocetta.car[8].cellularNic.nrChannelModel[0] bgCell_interference true
par Crocetta.car[8].cellularNic.nrChannelModel[0] extCell_interference true
par Crocetta.car[8].cellularNic.nrChannelModel[0] downlink_interference false
par Crocetta.car[8].cellularNic.nrChannelModel[0] uplink_interference false
par Crocetta.car[8].cellularNic.nrChannelModel[0] d2d_interference true
par Crocetta.car[8].cellularNic.nrChannelModel[0] enable_extCell_los true
par Crocetta.car[8].cellularNic.nrChannelModel[0] useRsrqFromLog false
par Crocetta.car[8].cellularNic.nrChannelModel[0] rsrqShift 22
par Crocetta.car[8].cellularNic.nrChannelModel[0] rsrqScale 1
par Crocetta.car[8].cellularNic.nrChannelModel[0] collectSinrStatistics true
scalar Crocetta.car[8].cellularNic.nrChannelModel[0] distance:mean -nan
attr source distance
attr title "distance between UE and serving eNB, mean"
attr unit meters
scalar Crocetta.car[8].cellularNic.nrChannelModel[0] measuredSinrUl:mean 23.577470211961
attr source measuredSinrUl
attr title "SINR measured at feedback computation, UL, mean"
attr unit dB
scalar Crocetta.car[8].cellularNic.nrChannelModel[0] measuredSinrDl:mean 39.889654667906
attr source measuredSinrDl
attr title "SINR measured at feedback computation, DL, mean"
attr unit dB
scalar Crocetta.car[8].cellularNic.nrChannelModel[0] rcvdSinrUl:mean 25.618041658489
attr source rcvdSinrUl
attr title "SINR measured at packet reception, UL, mean"
attr unit dB
scalar Crocetta.car[8].cellularNic.nrChannelModel[0] rcvdSinrDl:mean -nan
attr source rcvdSinrDl
attr title "SINR measured at packet reception, DL, mean"
attr unit dB
par Crocetta.car[8].cellularNic.nrDlFbGen typename "\"simu5g.stack.phy.feedback.LteDlFeedbackGenerator\""
par Crocetta.car[8].cellularNic.nrDlFbGen feedbackType "\"ALLBANDS\""
par Crocetta.car[8].cellularNic.nrDlFbGen rbAllocationType "\"localized\""
par Crocetta.car[8].cellularNic.nrDlFbGen fbPeriod 6
par Crocetta.car[8].cellularNic.nrDlFbGen fbDelay 1
par Crocetta.car[8].cellularNic.nrDlFbGen usePeriodic true
par Crocetta.car[8].cellularNic.nrDlFbGen initialTxMode "\"SINGLE_ANTENNA_PORT0\""
par Crocetta.car[8].cellularNic.nrDlFbGen feedbackGeneratorType "\"IDEAL\""
par Crocetta.car[8].cellularNic typename "\"simu5g.stack.NRNicUe\""
par Crocetta.car[8].cellularNic displayStringTextFormat "\"%a (%i)\\n%m\""
par Crocetta.car[8].cellularNic recordPcap false
par Crocetta.car[8].cellularNic numPcapRecorders 0
par Crocetta.car[8].cellularNic interfaceTableModule "\"Crocetta.car[8].interfaceTable\""
par Crocetta.car[8].cellularNic routingTableModule "\"Crocetta.car[8].ipv4.routingTable\""
par Crocetta.car[8].cellularNic LtePdcpRrcType "\"NRPdcpRrcUe\""
par Crocetta.car[8].cellularNic LteMacType "\"LteMacUeD2D\""
par Crocetta.car[8].cellularNic PacketFlowManagerType "\"PacketFlowManagerUe\""
par Crocetta.car[8].cellularNic hasRNISupport false
par Crocetta.car[8].cellularNic LtePhyType "\"NRPhyUe\""
par Crocetta.car[8].cellularNic nodeType "\"UE\""
par Crocetta.car[8].cellularNic processingDelayIn 0s
attr unit s
par Crocetta.car[8].cellularNic processingDelayOut 0s
attr unit s
par Crocetta.car[8].cellularNic LteChannelModelType "\"LteRealisticChannelModel\""
par Crocetta.car[8].cellularNic d2dCapable true
par Crocetta.car[8].cellularNic dualConnectivityEnabled false
par Crocetta.car[8].cellularNic numCarriers 1
par Crocetta.car[8].cellularNic address "\"0A-AA-00-00-00-1A\""
par Crocetta.car[8].cellularNic d2dInitialMode false
par Crocetta.car[8].cellularNic NRMacType "\"NRMacUe\""
par Crocetta.car[8].cellularNic NRPhyType "\"NRPhyUe\""
par Crocetta.car[8].cellularNic NRChannelModelType "\"NRChannelModel\""
par Crocetta.car[8].cellularNic NRPacketFlowManagerType "\"NRPacketFlowManagerUe\""
par Crocetta.car[8].cellularNic numNRCarriers 1
par Crocetta.car[8].at typename "\"inet.common.MessageDispatcher\""
par Crocetta.car[8].at displayStringTextFormat "\"processed %p pk (%l)\""
par Crocetta.car[8].tn typename "\"inet.common.MessageDispatcher\""
par Crocetta.car[8].tn displayStringTextFormat "\"processed %p pk (%l)\""
par Crocetta.car[8].nl typename "\"inet.common.MessageDispatcher\""
par Crocetta.car[8].nl displayStringTextFormat "\"processed %p pk (%l)\""
par Crocetta.car[8].configurator typename "\"inet.networklayer.configurator.ipv4.HostAutoConfigurator\""
par Crocetta.car[8].configurator interfaceTableModule "\"Crocetta.car[8].interfaceTable\""
par Crocetta.car[8].configurator interfaces "\"wlan\""
par Crocetta.car[8].configurator addressBase "\"10.0.0.0\""
par Crocetta.car[8].configurator netmask "\"255.0.0.0\""
par Crocetta.car[8].configurator mcastGroups "\"\""
par Crocetta.car[8] typename "\"simu5g.nodes.cars.NRCar\""
par Crocetta.car[8] mobilityType "\"VeinsInetMobility\""
par Crocetta.car[8] numApps 1
par Crocetta.car[8] hasUdp true
par Crocetta.car[8] hasTcp true
par Crocetta.car[8] hasSctp false
par Crocetta.car[8] nodeType "\"UE\""
par Crocetta.car[8] masterId 0
par Crocetta.car[8] macNodeId 1033
par Crocetta.car[8] macCellId 0
par Crocetta.car[8] nicType "\"NRNicUe\""
par Crocetta.car[8] hasIpv4 true
par Crocetta.car[8] hasIpv6 false
par Crocetta.car[8] numEthInterfaces 0
par Crocetta.car[8] extHostAddress "\"\""
par Crocetta.car[8] numLoInterfaces 1
par Crocetta.car[8] numPcapRecorders 0
par Crocetta.car[8] hasRNISupport false
par Crocetta.car[8] nrMasterId 1
par Crocetta.car[8] nrMacNodeId 2057
par Crocetta.car[8] nrMacCellId 1
par Crocetta typename "\"mapcrocetta.utils.Crocetta\""
par Crocetta useOsg false
par Crocetta playgroundSizeX 5000m
attr unit m
par Crocetta playgroundSizeY 5000m
attr unit m
par Crocetta playgroundSizeZ 50m
attr unit m

