file 51970672 1643901205                                        
version 3
run VoIP-UL-0-20220203-16:11:50-80110
attr configname VoIP-UL
attr datetime 20220203-16:11:50
attr datetimef 20220203-161150
attr experiment VoIP-UL
attr inifile prova5G.ini
attr iterationvars ""
attr iterationvarsd ""
attr iterationvarsf ""
attr measurement ""
attr network mapcrocetta.utils.prova5G
attr processid 80110
attr repetition 0
attr replication #0
attr resultdir results
attr runnumber 0
attr seedset 0
config image-path ../../../inet/images:../../../simu5g/images:../../../veins/subprojects/veins_inet/images:../../../veins/images
config *.server.numApps 100
config *.server.app[*].typename VoIPReceiver
config *.server.app[*].localPort "3000 + ancestorIndex(0)"
config *.car[*].numApps 1
config *.car[*].app[0].typename VoIPSender
config *.car[*].app[0].destAddress "\"server\""
config *.car[*].app[0].destPort "3000 + ancestorIndex(1)"
config cmdenv-express-mode true
config cmdenv-autoflush true
config cmdenv-status-frequency 1s
config **.cmdenv-log-level info
config image-path ../../images
config network mapcrocetta.utils.prova5G
config debug-on-errors false
config print-undisposed false
config sim-time-limit 3600s
config **.sctp.**.scalar-recording true
config **.sctp.**.vector-recording true
config **.routingRecorder.enabled false
config *.playgroundSizeX 5000m
config *.playgroundSizeY 5000m
config *.playgroundSizeZ 50m
config *.veinsManager.host "\"localhost\""
config *.veinsManager.moduleType "\"simu5g.nodes.cars.NRCar\""
config *.veinsManager.moduleName "\"car\""
config *.veinsManager.launchConfig "xmldoc(\"map.launchd.xml\")"
config *.veinsManager.updateInterval 0.1s
config *.car[*].mobilityType "\"VeinsInetMobility\""
config **.numBands 25
config **.ueTxPower 26
config **.eNodeBTxPower 46
config *.car[*].cellularNic.nrPhy.dynamicCellAssociation true
config *.car[*].masterId 0
config *.car[*].macCellId 0
config *.car[*].nrMasterId 1
config *.car[*].nrMacCellId 1
config **.gNodeB1.macCellId 1
config **.gNodeB1.macNodeId 1
config **.gNodeB2.macCellId 2
config **.gNodeB2.macNodeId 2
config **.gNodeB3.macCellId 3
config **.gNodeB3.macNodeId 3
config **.gNodeB4.macCellId 4
config **.gNodeB4.macNodeId 4
config **.gNodeB5.macCellId 5
config **.gNodeB5.macNodeId 5
config **.gNodeB6.macCellId 6
config **.gNodeB6.macNodeId 6
config **.gNodeB7.macCellId 7
config **.gNodeB7.macNodeId 7
config **.gNodeB8.macCellId 8
config **.gNodeB8.macNodeId 8
config **.gNodeB9.macCellId 9
config **.gNodeB9.macNodeId 9
config **.gNodeB10.macCellId 10
config **.gNodeB10.macNodeId 10
config **.gNodeB11.macCellId 11
config **.gNodeB11.macNodeId 11
config **.gNodeB12.macCellId 12
config **.gNodeB12.macNodeId 12
config **.gNodeB13.macCellId 13
config **.gNodeB13.macNodeId 13
config **.gNodeB14.macCellId 14
config **.gNodeB14.macNodeId 14
config **.gNodeB15.macCellId 15
config **.gNodeB15.macNodeId 15
config **.gNodeB16.macCellId 16
config **.gNodeB16.macNodeId 16
config **.gNodeB17.macCellId 16
config **.gNodeB17.macNodeId 16
config *.car[*].cellularNic.nrPhy.enableHandover true
config *.gNodeB*.cellularNic.phy.enableHandover true
config *.gNodeB*.cellularNic.phy.handoverLatency 10ms
config *.gNodeB*.cellInfo.broadcastMessageInterval 1s
config *.gNodeB1.numX2Apps 2
config *.gNodeB2.numX2Apps 2
config *.gNodeB3.numX2Apps 2
config *.gNodeB4.numX2Apps 2
config *.gNodeB5.numX2Apps 2
config *.gNodeB6.numX2Apps 2
config *.gNodeB7.numX2Apps 2
config *.gNodeB8.numX2Apps 2
config *.gNodeB9.numX2Apps 2
config *.gNodeB10.numX2Apps 2
config *.gNodeB11.numX2Apps 2
config *.gNodeB12.numX2Apps 2
config *.gNodeB13.numX2Apps 2
config *.gNodeB14.numX2Apps 2
config *.gNodeB15.numX2Apps 2
config *.gNodeB16.numX2Apps 2
config *.gNodeB17.numX2Apps 2
config *.gNodeB*.x2App[*].server.localPort "5000 + ancestorIndex(1)"
config *.gNodeB1.x2App[0].client.connectAddress "\"gNodeB2%x2ppp0\""
config *.gNodeB1.x2App[1].client.connectAddress "\"gNodeB17%x2ppp0\""
config *.gNodeB2.x2App[0].client.connectAddress "\"gNodeB1%x2ppp0\""
config *.gNodeB2.x2App[1].client.connectAddress "\"gNodeB3%x2ppp0\""
config *.gNodeB3.x2App[0].client.connectAddress "\"gNodeB2%x2ppp0\""
config *.gNodeB3.x2App[1].client.connectAddress "\"gNodeB4%x2ppp0\""
config *.gNodeB4.x2App[0].client.connectAddress "\"gNodeB3%x2ppp0\""
config *.gNodeB4.x2App[1].client.connectAddress "\"gNodeB5%x2ppp0\""
config *.gNodeB5.x2App[0].client.connectAddress "\"gNodeB4%x2ppp0\""
config *.gNodeB5.x2App[1].client.connectAddress "\"gNodeB6%x2ppp0\""
config *.gNodeB6.x2App[0].client.connectAddress "\"gNodeB5%x2ppp0\""
config *.gNodeB6.x2App[1].client.connectAddress "\"gNodeB7%x2ppp0\""
config *.gNodeB7.x2App[0].client.connectAddress "\"gNodeB6%x2ppp0\""
config *.gNodeB7.x2App[1].client.connectAddress "\"gNodeB8%x2ppp0\""
config *.gNodeB8.x2App[0].client.connectAddress "\"gNodeB7%x2ppp0\""
config *.gNodeB8.x2App[1].client.connectAddress "\"gNodeB9%x2ppp0\""
config *.gNodeB9.x2App[0].client.connectAddress "\"gNodeB8%x2ppp0\""
config *.gNodeB9.x2App[1].client.connectAddress "\"gNodeB10%x2ppp0\""
config *.gNodeB10.x2App[0].client.connectAddress "\"gNodeB9%x2ppp0\""
config *.gNodeB10.x2App[1].client.connectAddress "\"gNodeB11%x2ppp0\""
config *.gNodeB11.x2App[0].client.connectAddress "\"gNodeB10%x2ppp0\""
config *.gNodeB11.x2App[1].client.connectAddress "\"gNodeB12%x2ppp0\""
config *.gNodeB12.x2App[0].client.connectAddress "\"gNodeB11%x2ppp0\""
config *.gNodeB12.x2App[1].client.connectAddress "\"gNodeB13%x2ppp0\""
config *.gNodeB13.x2App[0].client.connectAddress "\"gNodeB12%x2ppp0\""
config *.gNodeB13.x2App[1].client.connectAddress "\"gNodeB14%x2ppp0\""
config *.gNodeB14.x2App[0].client.connectAddress "\"gNodeB13%x2ppp0\""
config *.gNodeB14.x2App[1].client.connectAddress "\"gNodeB15%x2ppp0\""
config *.gNodeB15.x2App[0].client.connectAddress "\"gNodeB14%x2ppp0\""
config *.gNodeB15.x2App[1].client.connectAddress "\"gNodeB16%x2ppp0\""
config *.gNodeB16.x2App[0].client.connectAddress "\"gNodeB15%x2ppp0\""
config *.gNodeB16.x2App[1].client.connectAddress "\"gNodeB17%x2ppp0\""
config *.gNodeB17.x2App[0].client.connectAddress "\"gNodeB16%x2ppp0\""
config *.gNodeB17.x2App[1].client.connectAddress "\"gNodeB1%x2ppp0\""
config **.sctp.nagleEnabled false
config **.sctp.enableHeartbeats false

vector 0 prova5G.server.ppp[0].ppp transmissionState:vector ETV
attr interpolationmode sample-hold
attr source transmissionStateChanged
attr title "tx state, vector"
vector 1 prova5G.router.ppp[0].ppp transmissionState:vector ETV
attr interpolationmode sample-hold
attr source transmissionStateChanged
attr title "tx state, vector"
vector 2 prova5G.router.ppp[1].ppp transmissionState:vector ETV
attr interpolationmode sample-hold
attr source transmissionStateChanged
attr title "tx state, vector"
vector 3 prova5G.upf.ppp[0].ppp transmissionState:vector ETV
attr interpolationmode sample-hold
attr source transmissionStateChanged
attr title "tx state, vector"
vector 4 prova5G.upf.ppp[1].ppp transmissionState:vector ETV
attr interpolationmode sample-hold
attr source transmissionStateChanged
attr title "tx state, vector"
vector 5 prova5G.upf.ppp[2].ppp transmissionState:vector ETV
attr interpolationmode sample-hold
attr source transmissionStateChanged
attr title "tx state, vector"
vector 6 prova5G.upf.ppp[3].ppp transmissionState:vector ETV
attr interpolationmode sample-hold
attr source transmissionStateChanged
attr title "tx state, vector"
vector 7 prova5G.upf.ppp[4].ppp transmissionState:vector ETV
attr interpolationmode sample-hold
attr source transmissionStateChanged
attr title "tx state, vector"
vector 8 prova5G.upf.ppp[5].ppp transmissionState:vector ETV
attr interpolationmode sample-hold
attr source transmissionStateChanged
attr title "tx state, vector"
vector 9 prova5G.upf.ppp[6].ppp transmissionState:vector ETV
attr interpolationmode sample-hold
attr source transmissionStateChanged
attr title "tx state, vector"
vector 10 prova5G.upf.ppp[7].ppp transmissionState:vector ETV
attr interpolationmode sample-hold
attr source transmissionStateChanged
attr title "tx state, vector"
vector 11 prova5G.upf.ppp[8].ppp transmissionState:vector ETV
attr interpolationmode sample-hold
attr source transmissionStateChanged
attr title "tx state, vector"
vector 12 prova5G.upf.ppp[9].ppp transmissionState:vector ETV
attr interpolationmode sample-hold
attr source transmissionStateChanged
attr title "tx state, vector"
vector 13 prova5G.upf.ppp[10].ppp transmissionState:vector ETV
attr interpolationmode sample-hold
attr source transmissionStateChanged
attr title "tx state, vector"
vector 14 prova5G.upf.ppp[11].ppp transmissionState:vector ETV
attr interpolationmode sample-hold
attr source transmissionStateChanged
attr title "tx state, vector"
vector 15 prova5G.upf.ppp[12].ppp transmissionState:vector ETV
attr interpolationmode sample-hold
attr source transmissionStateChanged
attr title "tx state, vector"
vector 16 prova5G.upf.ppp[13].ppp transmissionState:vector ETV
attr interpolationmode sample-hold
attr source transmissionStateChanged
attr title "tx state, vector"
vector 17 prova5G.upf.ppp[14].ppp transmissionState:vector ETV
attr interpolationmode sample-hold
attr source transmissionStateChanged
attr title "tx state, vector"
vector 18 prova5G.upf.ppp[15].ppp transmissionState:vector ETV
attr interpolationmode sample-hold
attr source transmissionStateChanged
attr title "tx state, vector"
vector 19 prova5G.upf.ppp[16].ppp transmissionState:vector ETV
attr interpolationmode sample-hold
attr source transmissionStateChanged
attr title "tx state, vector"
vector 20 prova5G.upf.pppIf.ppp transmissionState:vector ETV
attr interpolationmode sample-hold
attr source transmissionStateChanged
attr title "tx state, vector"
vector 21 prova5G.gNodeB1.pppIf.ppp transmissionState:vector ETV
attr interpolationmode sample-hold
attr source transmissionStateChanged
attr title "tx state, vector"
vector 22 prova5G.gNodeB1.x2ppp[0].ppp transmissionState:vector ETV
attr interpolationmode sample-hold
attr source transmissionStateChanged
attr title "tx state, vector"
vector 23 prova5G.gNodeB1.x2ppp[1].ppp transmissionState:vector ETV
attr interpolationmode sample-hold
attr source transmissionStateChanged
attr title "tx state, vector"
vector 24 prova5G.gNodeB1.pppMEHostIf.ppp transmissionState:vector ETV
attr interpolationmode sample-hold
attr source transmissionStateChanged
attr title "tx state, vector"
vector 25 prova5G.gNodeB2.pppIf.ppp transmissionState:vector ETV
attr interpolationmode sample-hold
attr source transmissionStateChanged
attr title "tx state, vector"
vector 26 prova5G.gNodeB2.x2ppp[0].ppp transmissionState:vector ETV
attr interpolationmode sample-hold
attr source transmissionStateChanged
attr title "tx state, vector"
vector 27 prova5G.gNodeB2.x2ppp[1].ppp transmissionState:vector ETV
attr interpolationmode sample-hold
attr source transmissionStateChanged
attr title "tx state, vector"
vector 28 prova5G.gNodeB2.pppMEHostIf.ppp transmissionState:vector ETV
attr interpolationmode sample-hold
attr source transmissionStateChanged
attr title "tx state, vector"
vector 29 prova5G.gNodeB3.pppIf.ppp transmissionState:vector ETV
attr interpolationmode sample-hold
attr source transmissionStateChanged
attr title "tx state, vector"
vector 30 prova5G.gNodeB3.x2ppp[0].ppp transmissionState:vector ETV
attr interpolationmode sample-hold
attr source transmissionStateChanged
attr title "tx state, vector"
vector 31 prova5G.gNodeB3.x2ppp[1].ppp transmissionState:vector ETV
attr interpolationmode sample-hold
attr source transmissionStateChanged
attr title "tx state, vector"
vector 32 prova5G.gNodeB3.pppMEHostIf.ppp transmissionState:vector ETV
attr interpolationmode sample-hold
attr source transmissionStateChanged
attr title "tx state, vector"
vector 33 prova5G.gNodeB4.pppIf.ppp transmissionState:vector ETV
attr interpolationmode sample-hold
attr source transmissionStateChanged
attr title "tx state, vector"
vector 34 prova5G.gNodeB4.x2ppp[0].ppp transmissionState:vector ETV
attr interpolationmode sample-hold
attr source transmissionStateChanged
attr title "tx state, vector"
vector 35 prova5G.gNodeB4.x2ppp[1].ppp transmissionState:vector ETV
attr interpolationmode sample-hold
attr source transmissionStateChanged
attr title "tx state, vector"
vector 36 prova5G.gNodeB4.pppMEHostIf.ppp transmissionState:vector ETV
attr interpolationmode sample-hold
attr source transmissionStateChanged
attr title "tx state, vector"
vector 37 prova5G.gNodeB5.pppIf.ppp transmissionState:vector ETV
attr interpolationmode sample-hold
attr source transmissionStateChanged
attr title "tx state, vector"
vector 38 prova5G.gNodeB5.x2ppp[0].ppp transmissionState:vector ETV
attr interpolationmode sample-hold
attr source transmissionStateChanged
attr title "tx state, vector"
vector 39 prova5G.gNodeB5.x2ppp[1].ppp transmissionState:vector ETV
attr interpolationmode sample-hold
attr source transmissionStateChanged
attr title "tx state, vector"
vector 40 prova5G.gNodeB5.pppMEHostIf.ppp transmissionState:vector ETV
attr interpolationmode sample-hold
attr source transmissionStateChanged
attr title "tx state, vector"
vector 41 prova5G.gNodeB6.pppIf.ppp transmissionState:vector ETV
attr interpolationmode sample-hold
attr source transmissionStateChanged
attr title "tx state, vector"
vector 42 prova5G.gNodeB6.x2ppp[0].ppp transmissionState:vector ETV
attr interpolationmode sample-hold
attr source transmissionStateChanged
attr title "tx state, vector"
vector 43 prova5G.gNodeB6.x2ppp[1].ppp transmissionState:vector ETV
attr interpolationmode sample-hold
attr source transmissionStateChanged
attr title "tx state, vector"
vector 44 prova5G.gNodeB6.pppMEHostIf.ppp transmissionState:vector ETV
attr interpolationmode sample-hold
attr source transmissionStateChanged
attr title "tx state, vector"
vector 45 prova5G.gNodeB7.pppIf.ppp transmissionState:vector ETV
attr interpolationmode sample-hold
attr source transmissionStateChanged
attr title "tx state, vector"
vector 46 prova5G.gNodeB7.x2ppp[0].ppp transmissionState:vector ETV
attr interpolationmode sample-hold
attr source transmissionStateChanged
attr title "tx state, vector"
vector 47 prova5G.gNodeB7.x2ppp[1].ppp transmissionState:vector ETV
attr interpolationmode sample-hold
attr source transmissionStateChanged
attr title "tx state, vector"
vector 48 prova5G.gNodeB7.pppMEHostIf.ppp transmissionState:vector ETV
attr interpolationmode sample-hold
attr source transmissionStateChanged
attr title "tx state, vector"
vector 49 prova5G.gNodeB8.pppIf.ppp transmissionState:vector ETV
attr interpolationmode sample-hold
attr source transmissionStateChanged
attr title "tx state, vector"
vector 50 prova5G.gNodeB8.x2ppp[0].ppp transmissionState:vector ETV
attr interpolationmode sample-hold
attr source transmissionStateChanged
attr title "tx state, vector"
vector 51 prova5G.gNodeB8.x2ppp[1].ppp transmissionState:vector ETV
attr interpolationmode sample-hold
attr source transmissionStateChanged
attr title "tx state, vector"
vector 52 prova5G.gNodeB8.pppMEHostIf.ppp transmissionState:vector ETV
attr interpolationmode sample-hold
attr source transmissionStateChanged
attr title "tx state, vector"
vector 53 prova5G.gNodeB9.pppIf.ppp transmissionState:vector ETV
attr interpolationmode sample-hold
attr source transmissionStateChanged
attr title "tx state, vector"
vector 54 prova5G.gNodeB9.x2ppp[0].ppp transmissionState:vector ETV
attr interpolationmode sample-hold
attr source transmissionStateChanged
attr title "tx state, vector"
vector 55 prova5G.gNodeB9.x2ppp[1].ppp transmissionState:vector ETV
attr interpolationmode sample-hold
attr source transmissionStateChanged
attr title "tx state, vector"
vector 56 prova5G.gNodeB9.pppMEHostIf.ppp transmissionState:vector ETV
attr interpolationmode sample-hold
attr source transmissionStateChanged
attr title "tx state, vector"
vector 57 prova5G.gNodeB10.pppIf.ppp transmissionState:vector ETV
attr interpolationmode sample-hold
attr source transmissionStateChanged
attr title "tx state, vector"
vector 58 prova5G.gNodeB10.x2ppp[0].ppp transmissionState:vector ETV
attr interpolationmode sample-hold
attr source transmissionStateChanged
attr title "tx state, vector"
vector 59 prova5G.gNodeB10.x2ppp[1].ppp transmissionState:vector ETV
attr interpolationmode sample-hold
attr source transmissionStateChanged
attr title "tx state, vector"
vector 60 prova5G.gNodeB10.pppMEHostIf.ppp transmissionState:vector ETV
attr interpolationmode sample-hold
attr source transmissionStateChanged
attr title "tx state, vector"
vector 61 prova5G.gNodeB11.pppIf.ppp transmissionState:vector ETV
attr interpolationmode sample-hold
attr source transmissionStateChanged
attr title "tx state, vector"
vector 62 prova5G.gNodeB11.x2ppp[0].ppp transmissionState:vector ETV
attr interpolationmode sample-hold
attr source transmissionStateChanged
attr title "tx state, vector"
vector 63 prova5G.gNodeB11.x2ppp[1].ppp transmissionState:vector ETV
attr interpolationmode sample-hold
attr source transmissionStateChanged
attr title "tx state, vector"
vector 64 prova5G.gNodeB11.pppMEHostIf.ppp transmissionState:vector ETV
attr interpolationmode sample-hold
attr source transmissionStateChanged
attr title "tx state, vector"
vector 65 prova5G.gNodeB12.pppIf.ppp transmissionState:vector ETV
attr interpolationmode sample-hold
attr source transmissionStateChanged
attr title "tx state, vector"
vector 66 prova5G.gNodeB12.x2ppp[0].ppp transmissionState:vector ETV
attr interpolationmode sample-hold
attr source transmissionStateChanged
attr title "tx state, vector"
vector 67 prova5G.gNodeB12.x2ppp[1].ppp transmissionState:vector ETV
attr interpolationmode sample-hold
attr source transmissionStateChanged
attr title "tx state, vector"
vector 68 prova5G.gNodeB12.pppMEHostIf.ppp transmissionState:vector ETV
attr interpolationmode sample-hold
attr source transmissionStateChanged
attr title "tx state, vector"
vector 69 prova5G.gNodeB13.pppIf.ppp transmissionState:vector ETV
attr interpolationmode sample-hold
attr source transmissionStateChanged
attr title "tx state, vector"
vector 70 prova5G.gNodeB13.x2ppp[0].ppp transmissionState:vector ETV
attr interpolationmode sample-hold
attr source transmissionStateChanged
attr title "tx state, vector"
vector 71 prova5G.gNodeB13.x2ppp[1].ppp transmissionState:vector ETV
attr interpolationmode sample-hold
attr source transmissionStateChanged
attr title "tx state, vector"
vector 72 prova5G.gNodeB13.pppMEHostIf.ppp transmissionState:vector ETV
attr interpolationmode sample-hold
attr source transmissionStateChanged
attr title "tx state, vector"
vector 73 prova5G.gNodeB14.pppIf.ppp transmissionState:vector ETV
attr interpolationmode sample-hold
attr source transmissionStateChanged
attr title "tx state, vector"
vector 74 prova5G.gNodeB14.x2ppp[0].ppp transmissionState:vector ETV
attr interpolationmode sample-hold
attr source transmissionStateChanged
attr title "tx state, vector"
vector 75 prova5G.gNodeB14.x2ppp[1].ppp transmissionState:vector ETV
attr interpolationmode sample-hold
attr source transmissionStateChanged
attr title "tx state, vector"
vector 76 prova5G.gNodeB14.pppMEHostIf.ppp transmissionState:vector ETV
attr interpolationmode sample-hold
attr source transmissionStateChanged
attr title "tx state, vector"
vector 77 prova5G.gNodeB15.pppIf.ppp transmissionState:vector ETV
attr interpolationmode sample-hold
attr source transmissionStateChanged
attr title "tx state, vector"
vector 78 prova5G.gNodeB15.x2ppp[0].ppp transmissionState:vector ETV
attr interpolationmode sample-hold
attr source transmissionStateChanged
attr title "tx state, vector"
vector 79 prova5G.gNodeB15.x2ppp[1].ppp transmissionState:vector ETV
attr interpolationmode sample-hold
attr source transmissionStateChanged
attr title "tx state, vector"
vector 80 prova5G.gNodeB15.pppMEHostIf.ppp transmissionState:vector ETV
attr interpolationmode sample-hold
attr source transmissionStateChanged
attr title "tx state, vector"
vector 81 prova5G.gNodeB16.pppIf.ppp transmissionState:vector ETV
attr interpolationmode sample-hold
attr source transmissionStateChanged
attr title "tx state, vector"
vector 82 prova5G.gNodeB16.x2ppp[0].ppp transmissionState:vector ETV
attr interpolationmode sample-hold
attr source transmissionStateChanged
attr title "tx state, vector"
vector 83 prova5G.gNodeB16.x2ppp[1].ppp transmissionState:vector ETV
attr interpolationmode sample-hold
attr source transmissionStateChanged
attr title "tx state, vector"
vector 84 prova5G.gNodeB16.pppMEHostIf.ppp transmissionState:vector ETV
attr interpolationmode sample-hold
attr source transmissionStateChanged
attr title "tx state, vector"
vector 85 prova5G.gNodeB17.pppIf.ppp transmissionState:vector ETV
attr interpolationmode sample-hold
attr source transmissionStateChanged
attr title "tx state, vector"
vector 86 prova5G.gNodeB17.x2ppp[0].ppp transmissionState:vector ETV
attr interpolationmode sample-hold
attr source transmissionStateChanged
attr title "tx state, vector"
vector 87 prova5G.gNodeB17.x2ppp[1].ppp transmissionState:vector ETV
attr interpolationmode sample-hold
attr source transmissionStateChanged
attr title "tx state, vector"
vector 88 prova5G.gNodeB17.pppMEHostIf.ppp transmissionState:vector ETV
attr interpolationmode sample-hold
attr source transmissionStateChanged
attr title "tx state, vector"
vector 89 prova5G.gNodeB1.sctp "Throughput of Association 292" ETV
vector 90 prova5G.gNodeB1.sctp "Throughput of Association 293" ETV
vector 91 prova5G.gNodeB2.sctp "Throughput of Association 294" ETV
vector 92 prova5G.gNodeB2.sctp "Throughput of Association 295" ETV
vector 93 prova5G.gNodeB3.sctp "Throughput of Association 296" ETV
vector 94 prova5G.gNodeB3.sctp "Throughput of Association 297" ETV
vector 95 prova5G.gNodeB4.sctp "Throughput of Association 298" ETV
vector 96 prova5G.gNodeB4.sctp "Throughput of Association 299" ETV
vector 97 prova5G.gNodeB5.sctp "Throughput of Association 300" ETV
vector 98 prova5G.gNodeB5.sctp "Throughput of Association 301" ETV
vector 99 prova5G.gNodeB6.sctp "Throughput of Association 302" ETV
vector 100 prova5G.gNodeB6.sctp "Throughput of Association 303" ETV
vector 101 prova5G.gNodeB7.sctp "Throughput of Association 304" ETV
vector 102 prova5G.gNodeB7.sctp "Throughput of Association 305" ETV
vector 103 prova5G.gNodeB8.sctp "Throughput of Association 306" ETV
vector 104 prova5G.gNodeB8.sctp "Throughput of Association 307" ETV
vector 105 prova5G.gNodeB9.sctp "Throughput of Association 308" ETV
vector 106 prova5G.gNodeB9.sctp "Throughput of Association 309" ETV
vector 107 prova5G.gNodeB10.sctp "Throughput of Association 310" ETV
vector 108 prova5G.gNodeB10.sctp "Throughput of Association 311" ETV
vector 109 prova5G.gNodeB11.sctp "Throughput of Association 312" ETV
vector 110 prova5G.gNodeB11.sctp "Throughput of Association 313" ETV
vector 111 prova5G.gNodeB12.sctp "Throughput of Association 314" ETV
vector 112 prova5G.gNodeB12.sctp "Throughput of Association 315" ETV
vector 113 prova5G.gNodeB13.sctp "Throughput of Association 316" ETV
vector 114 prova5G.gNodeB13.sctp "Throughput of Association 317" ETV
vector 115 prova5G.gNodeB14.sctp "Throughput of Association 318" ETV
vector 116 prova5G.gNodeB14.sctp "Throughput of Association 319" ETV
vector 117 prova5G.gNodeB15.sctp "Throughput of Association 320" ETV
vector 118 prova5G.gNodeB15.sctp "Throughput of Association 321" ETV
vector 119 prova5G.gNodeB16.sctp "Throughput of Association 322" ETV
vector 120 prova5G.gNodeB16.sctp "Throughput of Association 323" ETV
vector 121 prova5G.gNodeB17.sctp "Throughput of Association 324" ETV
vector 122 prova5G.gNodeB17.sctp "Throughput of Association 325" ETV
vector 123 prova5G.gNodeB1.sctp "Throughput of Association 104" ETV
vector 124 prova5G.gNodeB1.sctp "Fast Recovery State 104:192.168.19.2" ETV
vector 125 prova5G.gNodeB1.sctp "Throughput of Association 105" ETV
vector 126 prova5G.gNodeB1.sctp "Fast Recovery State 105:192.168.50.2" ETV
vector 127 prova5G.gNodeB2.sctp "Throughput of Association 109" ETV
vector 128 prova5G.gNodeB2.sctp "Fast Recovery State 109:192.168.19.1" ETV
vector 129 prova5G.gNodeB2.sctp "Throughput of Association 110" ETV
vector 130 prova5G.gNodeB2.sctp "Fast Recovery State 110:192.168.22.2" ETV
vector 131 prova5G.gNodeB3.sctp "Throughput of Association 114" ETV
vector 132 prova5G.gNodeB3.sctp "Fast Recovery State 114:192.168.19.2" ETV
vector 133 prova5G.gNodeB3.sctp "Throughput of Association 115" ETV
vector 134 prova5G.gNodeB3.sctp "Fast Recovery State 115:192.168.24.2" ETV
vector 135 prova5G.gNodeB4.sctp "Throughput of Association 119" ETV
vector 136 prova5G.gNodeB4.sctp "Fast Recovery State 119:192.168.22.2" ETV
vector 137 prova5G.gNodeB4.sctp "Throughput of Association 120" ETV
vector 138 prova5G.gNodeB4.sctp "Fast Recovery State 120:192.168.26.2" ETV
vector 139 prova5G.gNodeB5.sctp "Throughput of Association 124" ETV
vector 140 prova5G.gNodeB5.sctp "Fast Recovery State 124:192.168.24.2" ETV
vector 141 prova5G.gNodeB5.sctp "Throughput of Association 125" ETV
vector 142 prova5G.gNodeB5.sctp "Fast Recovery State 125:192.168.28.2" ETV
vector 143 prova5G.gNodeB6.sctp "Throughput of Association 129" ETV
vector 144 prova5G.gNodeB6.sctp "Fast Recovery State 129:192.168.26.2" ETV
vector 145 prova5G.gNodeB6.sctp "Throughput of Association 130" ETV
vector 146 prova5G.gNodeB6.sctp "Fast Recovery State 130:192.168.30.2" ETV
vector 147 prova5G.gNodeB7.sctp "Throughput of Association 134" ETV
vector 148 prova5G.gNodeB7.sctp "Fast Recovery State 134:192.168.28.2" ETV
vector 149 prova5G.gNodeB7.sctp "Throughput of Association 135" ETV
vector 150 prova5G.gNodeB7.sctp "Fast Recovery State 135:192.168.32.2" ETV
vector 151 prova5G.gNodeB8.sctp "Throughput of Association 139" ETV
vector 152 prova5G.gNodeB8.sctp "Fast Recovery State 139:192.168.30.2" ETV
vector 153 prova5G.gNodeB8.sctp "Throughput of Association 140" ETV
vector 154 prova5G.gNodeB8.sctp "Fast Recovery State 140:192.168.34.2" ETV
vector 155 prova5G.gNodeB9.sctp "Throughput of Association 144" ETV
vector 156 prova5G.gNodeB9.sctp "Fast Recovery State 144:192.168.32.2" ETV
vector 157 prova5G.gNodeB9.sctp "Throughput of Association 145" ETV
vector 158 prova5G.gNodeB9.sctp "Fast Recovery State 145:192.168.36.2" ETV
vector 159 prova5G.gNodeB10.sctp "Throughput of Association 149" ETV
vector 160 prova5G.gNodeB10.sctp "Fast Recovery State 149:192.168.34.2" ETV
vector 161 prova5G.gNodeB10.sctp "Throughput of Association 150" ETV
vector 162 prova5G.gNodeB10.sctp "Fast Recovery State 150:192.168.38.2" ETV
vector 163 prova5G.gNodeB11.sctp "Throughput of Association 154" ETV
vector 164 prova5G.gNodeB11.sctp "Fast Recovery State 154:192.168.36.2" ETV
vector 165 prova5G.gNodeB11.sctp "Throughput of Association 155" ETV
vector 166 prova5G.gNodeB11.sctp "Fast Recovery State 155:192.168.40.2" ETV
vector 167 prova5G.gNodeB12.sctp "Throughput of Association 159" ETV
vector 168 prova5G.gNodeB12.sctp "Fast Recovery State 159:192.168.38.2" ETV
vector 169 prova5G.gNodeB12.sctp "Throughput of Association 160" ETV
vector 170 prova5G.gNodeB12.sctp "Fast Recovery State 160:192.168.42.2" ETV
vector 171 prova5G.gNodeB13.sctp "Throughput of Association 164" ETV
vector 172 prova5G.gNodeB13.sctp "Fast Recovery State 164:192.168.40.2" ETV
vector 173 prova5G.gNodeB13.sctp "Throughput of Association 165" ETV
vector 174 prova5G.gNodeB13.sctp "Fast Recovery State 165:192.168.44.2" ETV
vector 175 prova5G.gNodeB14.sctp "Throughput of Association 169" ETV
vector 176 prova5G.gNodeB14.sctp "Fast Recovery State 169:192.168.42.2" ETV
vector 177 prova5G.gNodeB14.sctp "Throughput of Association 170" ETV
vector 178 prova5G.gNodeB14.sctp "Fast Recovery State 170:192.168.46.2" ETV
vector 179 prova5G.gNodeB15.sctp "Throughput of Association 174" ETV
vector 180 prova5G.gNodeB15.sctp "Fast Recovery State 174:192.168.44.2" ETV
vector 181 prova5G.gNodeB15.sctp "Throughput of Association 175" ETV
vector 182 prova5G.gNodeB15.sctp "Fast Recovery State 175:192.168.48.2" ETV
vector 183 prova5G.gNodeB16.sctp "Throughput of Association 179" ETV
vector 184 prova5G.gNodeB16.sctp "Fast Recovery State 179:192.168.46.2" ETV
vector 185 prova5G.gNodeB16.sctp "Throughput of Association 180" ETV
vector 186 prova5G.gNodeB16.sctp "Fast Recovery State 180:192.168.50.2" ETV
vector 187 prova5G.gNodeB17.sctp "Throughput of Association 184" ETV
vector 188 prova5G.gNodeB17.sctp "Fast Recovery State 184:192.168.48.2" ETV
vector 189 prova5G.gNodeB17.sctp "Throughput of Association 185" ETV
vector 190 prova5G.gNodeB17.sctp "Fast Recovery State 185:192.168.19.1" ETV
vector 191 prova5G.gNodeB1.x2ppp[0].ppp rcvdPkFromHl:vector(packetBytes) ETV
attr interpolationmode none
attr source packetReceivedFromUpper
attr title "packets received from higher layer, vector(packetBytes)"
vector 192 prova5G.gNodeB1.x2ppp[0].ppp.queue packetPushed:vector(packetBytes) ETV
attr interpolationmode none
attr title "packet pushed, vector(packetBytes)"
vector 193 prova5G.gNodeB1.x2ppp[0].ppp.queue queueLength:vector ETV
attr autoWarmupFilter false
attr interpolationmode sample-hold
attr source "warmup(count(packetPushed) - count(packetPulled) - count(packetRemoved) - count(packetDropped))"
attr title "queue length, vector"
attr type int
vector 194 prova5G.gNodeB1.x2ppp[0].ppp.queue packetPulled:vector(packetBytes) ETV
attr interpolationmode none
attr title "packet pulled, vector(packetBytes)"
vector 195 prova5G.gNodeB1.x2ppp[0].ppp.queue queueingTime:vector ETV
attr interpolationmode none
attr source queueingTime(packetPulled)
attr title "queueing times, vector"
attr unit s
vector 196 prova5G.gNodeB1.x2ppp[0].ppp txPk:vector(packetBytes) ETV
attr interpolationmode none
attr source packetSentToLower
attr title "packets transmitted, vector(packetBytes)"
vector 197 prova5G.gNodeB1.x2ppp[1].ppp rcvdPkFromHl:vector(packetBytes) ETV
attr interpolationmode none
attr source packetReceivedFromUpper
attr title "packets received from higher layer, vector(packetBytes)"
vector 198 prova5G.gNodeB1.x2ppp[1].ppp.queue packetPushed:vector(packetBytes) ETV
attr interpolationmode none
attr title "packet pushed, vector(packetBytes)"
vector 199 prova5G.gNodeB1.x2ppp[1].ppp.queue queueLength:vector ETV
attr autoWarmupFilter false
attr interpolationmode sample-hold
attr source "warmup(count(packetPushed) - count(packetPulled) - count(packetRemoved) - count(packetDropped))"
attr title "queue length, vector"
attr type int
vector 200 prova5G.gNodeB1.x2ppp[1].ppp.queue packetPulled:vector(packetBytes) ETV
attr interpolationmode none
attr title "packet pulled, vector(packetBytes)"
vector 201 prova5G.gNodeB1.x2ppp[1].ppp.queue queueingTime:vector ETV
attr interpolationmode none
attr source queueingTime(packetPulled)
attr title "queueing times, vector"
attr unit s
vector 202 prova5G.gNodeB1.x2ppp[1].ppp txPk:vector(packetBytes) ETV
attr interpolationmode none
attr source packetSentToLower
attr title "packets transmitted, vector(packetBytes)"
vector 203 prova5G.gNodeB2.x2ppp[0].ppp rcvdPkFromHl:vector(packetBytes) ETV
attr interpolationmode none
attr source packetReceivedFromUpper
attr title "packets received from higher layer, vector(packetBytes)"
vector 204 prova5G.gNodeB2.x2ppp[0].ppp.queue packetPushed:vector(packetBytes) ETV
attr interpolationmode none
attr title "packet pushed, vector(packetBytes)"
vector 205 prova5G.gNodeB2.x2ppp[0].ppp.queue queueLength:vector ETV
attr autoWarmupFilter false
attr interpolationmode sample-hold
attr source "warmup(count(packetPushed) - count(packetPulled) - count(packetRemoved) - count(packetDropped))"
attr title "queue length, vector"
attr type int
vector 206 prova5G.gNodeB2.x2ppp[0].ppp.queue packetPulled:vector(packetBytes) ETV
attr interpolationmode none
attr title "packet pulled, vector(packetBytes)"
vector 207 prova5G.gNodeB2.x2ppp[0].ppp.queue queueingTime:vector ETV
attr interpolationmode none
attr source queueingTime(packetPulled)
attr title "queueing times, vector"
attr unit s
vector 208 prova5G.gNodeB2.x2ppp[0].ppp txPk:vector(packetBytes) ETV
attr interpolationmode none
attr source packetSentToLower
attr title "packets transmitted, vector(packetBytes)"
vector 209 prova5G.gNodeB2.x2ppp[1].ppp rcvdPkFromHl:vector(packetBytes) ETV
attr interpolationmode none
attr source packetReceivedFromUpper
attr title "packets received from higher layer, vector(packetBytes)"
vector 210 prova5G.gNodeB2.x2ppp[1].ppp.queue packetPushed:vector(packetBytes) ETV
attr interpolationmode none
attr title "packet pushed, vector(packetBytes)"
vector 211 prova5G.gNodeB2.x2ppp[1].ppp.queue queueLength:vector ETV
attr autoWarmupFilter false
attr interpolationmode sample-hold
attr source "warmup(count(packetPushed) - count(packetPulled) - count(packetRemoved) - count(packetDropped))"
attr title "queue length, vector"
attr type int
vector 212 prova5G.gNodeB2.x2ppp[1].ppp.queue packetPulled:vector(packetBytes) ETV
attr interpolationmode none
attr title "packet pulled, vector(packetBytes)"
vector 213 prova5G.gNodeB2.x2ppp[1].ppp.queue queueingTime:vector ETV
attr interpolationmode none
attr source queueingTime(packetPulled)
attr title "queueing times, vector"
attr unit s
vector 214 prova5G.gNodeB2.x2ppp[1].ppp txPk:vector(packetBytes) ETV
attr interpolationmode none
attr source packetSentToLower
attr title "packets transmitted, vector(packetBytes)"
vector 215 prova5G.gNodeB3.x2ppp[0].ppp rcvdPkFromHl:vector(packetBytes) ETV
attr interpolationmode none
attr source packetReceivedFromUpper
attr title "packets received from higher layer, vector(packetBytes)"
vector 216 prova5G.gNodeB3.x2ppp[0].ppp.queue packetPushed:vector(packetBytes) ETV
attr interpolationmode none
attr title "packet pushed, vector(packetBytes)"
vector 217 prova5G.gNodeB3.x2ppp[0].ppp.queue queueLength:vector ETV
attr autoWarmupFilter false
attr interpolationmode sample-hold
attr source "warmup(count(packetPushed) - count(packetPulled) - count(packetRemoved) - count(packetDropped))"
attr title "queue length, vector"
attr type int
vector 218 prova5G.gNodeB3.x2ppp[0].ppp.queue packetPulled:vector(packetBytes) ETV
attr interpolationmode none
attr title "packet pulled, vector(packetBytes)"
vector 219 prova5G.gNodeB3.x2ppp[0].ppp.queue queueingTime:vector ETV
attr interpolationmode none
attr source queueingTime(packetPulled)
attr title "queueing times, vector"
attr unit s
vector 220 prova5G.gNodeB3.x2ppp[0].ppp txPk:vector(packetBytes) ETV
attr interpolationmode none
attr source packetSentToLower
attr title "packets transmitted, vector(packetBytes)"
vector 221 prova5G.gNodeB3.x2ppp[1].ppp rcvdPkFromHl:vector(packetBytes) ETV
attr interpolationmode none
attr source packetReceivedFromUpper
attr title "packets received from higher layer, vector(packetBytes)"
vector 222 prova5G.gNodeB3.x2ppp[1].ppp.queue packetPushed:vector(packetBytes) ETV
attr interpolationmode none
attr title "packet pushed, vector(packetBytes)"
vector 223 prova5G.gNodeB3.x2ppp[1].ppp.queue queueLength:vector ETV
attr autoWarmupFilter false
attr interpolationmode sample-hold
attr source "warmup(count(packetPushed) - count(packetPulled) - count(packetRemoved) - count(packetDropped))"
attr title "queue length, vector"
attr type int
vector 224 prova5G.gNodeB3.x2ppp[1].ppp.queue packetPulled:vector(packetBytes) ETV
attr interpolationmode none
attr title "packet pulled, vector(packetBytes)"
vector 225 prova5G.gNodeB3.x2ppp[1].ppp.queue queueingTime:vector ETV
attr interpolationmode none
attr source queueingTime(packetPulled)
attr title "queueing times, vector"
attr unit s
vector 226 prova5G.gNodeB3.x2ppp[1].ppp txPk:vector(packetBytes) ETV
attr interpolationmode none
attr source packetSentToLower
attr title "packets transmitted, vector(packetBytes)"
vector 227 prova5G.gNodeB4.x2ppp[0].ppp rcvdPkFromHl:vector(packetBytes) ETV
attr interpolationmode none
attr source packetReceivedFromUpper
attr title "packets received from higher layer, vector(packetBytes)"
vector 228 prova5G.gNodeB4.x2ppp[0].ppp.queue packetPushed:vector(packetBytes) ETV
attr interpolationmode none
attr title "packet pushed, vector(packetBytes)"
vector 229 prova5G.gNodeB4.x2ppp[0].ppp.queue queueLength:vector ETV
attr autoWarmupFilter false
attr interpolationmode sample-hold
attr source "warmup(count(packetPushed) - count(packetPulled) - count(packetRemoved) - count(packetDropped))"
attr title "queue length, vector"
attr type int
vector 230 prova5G.gNodeB4.x2ppp[0].ppp.queue packetPulled:vector(packetBytes) ETV
attr interpolationmode none
attr title "packet pulled, vector(packetBytes)"
vector 231 prova5G.gNodeB4.x2ppp[0].ppp.queue queueingTime:vector ETV
attr interpolationmode none
attr source queueingTime(packetPulled)
attr title "queueing times, vector"
attr unit s
vector 232 prova5G.gNodeB4.x2ppp[0].ppp txPk:vector(packetBytes) ETV
attr interpolationmode none
attr source packetSentToLower
attr title "packets transmitted, vector(packetBytes)"
vector 233 prova5G.gNodeB4.x2ppp[1].ppp rcvdPkFromHl:vector(packetBytes) ETV
attr interpolationmode none
attr source packetReceivedFromUpper
attr title "packets received from higher layer, vector(packetBytes)"
vector 234 prova5G.gNodeB4.x2ppp[1].ppp.queue packetPushed:vector(packetBytes) ETV
attr interpolationmode none
attr title "packet pushed, vector(packetBytes)"
vector 235 prova5G.gNodeB4.x2ppp[1].ppp.queue queueLength:vector ETV
attr autoWarmupFilter false
attr interpolationmode sample-hold
attr source "warmup(count(packetPushed) - count(packetPulled) - count(packetRemoved) - count(packetDropped))"
attr title "queue length, vector"
attr type int
vector 236 prova5G.gNodeB4.x2ppp[1].ppp.queue packetPulled:vector(packetBytes) ETV
attr interpolationmode none
attr title "packet pulled, vector(packetBytes)"
vector 237 prova5G.gNodeB4.x2ppp[1].ppp.queue queueingTime:vector ETV
attr interpolationmode none
attr source queueingTime(packetPulled)
attr title "queueing times, vector"
attr unit s
vector 238 prova5G.gNodeB4.x2ppp[1].ppp txPk:vector(packetBytes) ETV
attr interpolationmode none
attr source packetSentToLower
attr title "packets transmitted, vector(packetBytes)"
vector 239 prova5G.gNodeB5.x2ppp[0].ppp rcvdPkFromHl:vector(packetBytes) ETV
attr interpolationmode none
attr source packetReceivedFromUpper
attr title "packets received from higher layer, vector(packetBytes)"
vector 240 prova5G.gNodeB5.x2ppp[0].ppp.queue packetPushed:vector(packetBytes) ETV
attr interpolationmode none
attr title "packet pushed, vector(packetBytes)"
vector 241 prova5G.gNodeB5.x2ppp[0].ppp.queue queueLength:vector ETV
attr autoWarmupFilter false
attr interpolationmode sample-hold
attr source "warmup(count(packetPushed) - count(packetPulled) - count(packetRemoved) - count(packetDropped))"
attr title "queue length, vector"
attr type int
vector 242 prova5G.gNodeB5.x2ppp[0].ppp.queue packetPulled:vector(packetBytes) ETV
attr interpolationmode none
attr title "packet pulled, vector(packetBytes)"
vector 243 prova5G.gNodeB5.x2ppp[0].ppp.queue queueingTime:vector ETV
attr interpolationmode none
attr source queueingTime(packetPulled)
attr title "queueing times, vector"
attr unit s
vector 244 prova5G.gNodeB5.x2ppp[0].ppp txPk:vector(packetBytes) ETV
attr interpolationmode none
attr source packetSentToLower
attr title "packets transmitted, vector(packetBytes)"
vector 245 prova5G.gNodeB5.x2ppp[1].ppp rcvdPkFromHl:vector(packetBytes) ETV
attr interpolationmode none
attr source packetReceivedFromUpper
attr title "packets received from higher layer, vector(packetBytes)"
vector 246 prova5G.gNodeB5.x2ppp[1].ppp.queue packetPushed:vector(packetBytes) ETV
attr interpolationmode none
attr title "packet pushed, vector(packetBytes)"
vector 247 prova5G.gNodeB5.x2ppp[1].ppp.queue queueLength:vector ETV
attr autoWarmupFilter false
attr interpolationmode sample-hold
attr source "warmup(count(packetPushed) - count(packetPulled) - count(packetRemoved) - count(packetDropped))"
attr title "queue length, vector"
attr type int
vector 248 prova5G.gNodeB5.x2ppp[1].ppp.queue packetPulled:vector(packetBytes) ETV
attr interpolationmode none
attr title "packet pulled, vector(packetBytes)"
vector 249 prova5G.gNodeB5.x2ppp[1].ppp.queue queueingTime:vector ETV
attr interpolationmode none
attr source queueingTime(packetPulled)
attr title "queueing times, vector"
attr unit s
vector 250 prova5G.gNodeB5.x2ppp[1].ppp txPk:vector(packetBytes) ETV
attr interpolationmode none
attr source packetSentToLower
attr title "packets transmitted, vector(packetBytes)"
vector 251 prova5G.gNodeB6.x2ppp[0].ppp rcvdPkFromHl:vector(packetBytes) ETV
attr interpolationmode none
attr source packetReceivedFromUpper
attr title "packets received from higher layer, vector(packetBytes)"
vector 252 prova5G.gNodeB6.x2ppp[0].ppp.queue packetPushed:vector(packetBytes) ETV
attr interpolationmode none
attr title "packet pushed, vector(packetBytes)"
vector 253 prova5G.gNodeB6.x2ppp[0].ppp.queue queueLength:vector ETV
attr autoWarmupFilter false
attr interpolationmode sample-hold
attr source "warmup(count(packetPushed) - count(packetPulled) - count(packetRemoved) - count(packetDropped))"
attr title "queue length, vector"
attr type int
vector 254 prova5G.gNodeB6.x2ppp[0].ppp.queue packetPulled:vector(packetBytes) ETV
attr interpolationmode none
attr title "packet pulled, vector(packetBytes)"
vector 255 prova5G.gNodeB6.x2ppp[0].ppp.queue queueingTime:vector ETV
attr interpolationmode none
attr source queueingTime(packetPulled)
attr title "queueing times, vector"
attr unit s
vector 256 prova5G.gNodeB6.x2ppp[0].ppp txPk:vector(packetBytes) ETV
attr interpolationmode none
attr source packetSentToLower
attr title "packets transmitted, vector(packetBytes)"
vector 257 prova5G.gNodeB6.x2ppp[1].ppp rcvdPkFromHl:vector(packetBytes) ETV
attr interpolationmode none
attr source packetReceivedFromUpper
attr title "packets received from higher layer, vector(packetBytes)"
vector 258 prova5G.gNodeB6.x2ppp[1].ppp.queue packetPushed:vector(packetBytes) ETV
attr interpolationmode none
attr title "packet pushed, vector(packetBytes)"
vector 259 prova5G.gNodeB6.x2ppp[1].ppp.queue queueLength:vector ETV
attr autoWarmupFilter false
attr interpolationmode sample-hold
attr source "warmup(count(packetPushed) - count(packetPulled) - count(packetRemoved) - count(packetDropped))"
attr title "queue length, vector"
attr type int
vector 260 prova5G.gNodeB6.x2ppp[1].ppp.queue packetPulled:vector(packetBytes) ETV
attr interpolationmode none
attr title "packet pulled, vector(packetBytes)"
vector 261 prova5G.gNodeB6.x2ppp[1].ppp.queue queueingTime:vector ETV
attr interpolationmode none
attr source queueingTime(packetPulled)
attr title "queueing times, vector"
attr unit s
vector 262 prova5G.gNodeB6.x2ppp[1].ppp txPk:vector(packetBytes) ETV
attr interpolationmode none
attr source packetSentToLower
attr title "packets transmitted, vector(packetBytes)"
vector 263 prova5G.gNodeB7.x2ppp[0].ppp rcvdPkFromHl:vector(packetBytes) ETV
attr interpolationmode none
attr source packetReceivedFromUpper
attr title "packets received from higher layer, vector(packetBytes)"
vector 264 prova5G.gNodeB7.x2ppp[0].ppp.queue packetPushed:vector(packetBytes) ETV
attr interpolationmode none
attr title "packet pushed, vector(packetBytes)"
vector 265 prova5G.gNodeB7.x2ppp[0].ppp.queue queueLength:vector ETV
attr autoWarmupFilter false
attr interpolationmode sample-hold
attr source "warmup(count(packetPushed) - count(packetPulled) - count(packetRemoved) - count(packetDropped))"
attr title "queue length, vector"
attr type int
vector 266 prova5G.gNodeB7.x2ppp[0].ppp.queue packetPulled:vector(packetBytes) ETV
attr interpolationmode none
attr title "packet pulled, vector(packetBytes)"
vector 267 prova5G.gNodeB7.x2ppp[0].ppp.queue queueingTime:vector ETV
attr interpolationmode none
attr source queueingTime(packetPulled)
attr title "queueing times, vector"
attr unit s
vector 268 prova5G.gNodeB7.x2ppp[0].ppp txPk:vector(packetBytes) ETV
attr interpolationmode none
attr source packetSentToLower
attr title "packets transmitted, vector(packetBytes)"
vector 269 prova5G.gNodeB7.x2ppp[1].ppp rcvdPkFromHl:vector(packetBytes) ETV
attr interpolationmode none
attr source packetReceivedFromUpper
attr title "packets received from higher layer, vector(packetBytes)"
vector 270 prova5G.gNodeB7.x2ppp[1].ppp.queue packetPushed:vector(packetBytes) ETV
attr interpolationmode none
attr title "packet pushed, vector(packetBytes)"
vector 271 prova5G.gNodeB7.x2ppp[1].ppp.queue queueLength:vector ETV
attr autoWarmupFilter false
attr interpolationmode sample-hold
attr source "warmup(count(packetPushed) - count(packetPulled) - count(packetRemoved) - count(packetDropped))"
attr title "queue length, vector"
attr type int
vector 272 prova5G.gNodeB7.x2ppp[1].ppp.queue packetPulled:vector(packetBytes) ETV
attr interpolationmode none
attr title "packet pulled, vector(packetBytes)"
vector 273 prova5G.gNodeB7.x2ppp[1].ppp.queue queueingTime:vector ETV
attr interpolationmode none
attr source queueingTime(packetPulled)
attr title "queueing times, vector"
attr unit s
vector 274 prova5G.gNodeB7.x2ppp[1].ppp txPk:vector(packetBytes) ETV
attr interpolationmode none
attr source packetSentToLower
attr title "packets transmitted, vector(packetBytes)"
vector 275 prova5G.gNodeB8.x2ppp[0].ppp rcvdPkFromHl:vector(packetBytes) ETV
attr interpolationmode none
attr source packetReceivedFromUpper
attr title "packets received from higher layer, vector(packetBytes)"
vector 276 prova5G.gNodeB8.x2ppp[0].ppp.queue packetPushed:vector(packetBytes) ETV
attr interpolationmode none
attr title "packet pushed, vector(packetBytes)"
vector 277 prova5G.gNodeB8.x2ppp[0].ppp.queue queueLength:vector ETV
attr autoWarmupFilter false
attr interpolationmode sample-hold
attr source "warmup(count(packetPushed) - count(packetPulled) - count(packetRemoved) - count(packetDropped))"
attr title "queue length, vector"
attr type int
vector 278 prova5G.gNodeB8.x2ppp[0].ppp.queue packetPulled:vector(packetBytes) ETV
attr interpolationmode none
attr title "packet pulled, vector(packetBytes)"
vector 279 prova5G.gNodeB8.x2ppp[0].ppp.queue queueingTime:vector ETV
attr interpolationmode none
attr source queueingTime(packetPulled)
attr title "queueing times, vector"
attr unit s
vector 280 prova5G.gNodeB8.x2ppp[0].ppp txPk:vector(packetBytes) ETV
attr interpolationmode none
attr source packetSentToLower
attr title "packets transmitted, vector(packetBytes)"
vector 281 prova5G.gNodeB8.x2ppp[1].ppp rcvdPkFromHl:vector(packetBytes) ETV
attr interpolationmode none
attr source packetReceivedFromUpper
attr title "packets received from higher layer, vector(packetBytes)"
vector 282 prova5G.gNodeB8.x2ppp[1].ppp.queue packetPushed:vector(packetBytes) ETV
attr interpolationmode none
attr title "packet pushed, vector(packetBytes)"
vector 283 prova5G.gNodeB8.x2ppp[1].ppp.queue queueLength:vector ETV
attr autoWarmupFilter false
attr interpolationmode sample-hold
attr source "warmup(count(packetPushed) - count(packetPulled) - count(packetRemoved) - count(packetDropped))"
attr title "queue length, vector"
attr type int
vector 284 prova5G.gNodeB8.x2ppp[1].ppp.queue packetPulled:vector(packetBytes) ETV
attr interpolationmode none
attr title "packet pulled, vector(packetBytes)"
vector 285 prova5G.gNodeB8.x2ppp[1].ppp.queue queueingTime:vector ETV
attr interpolationmode none
attr source queueingTime(packetPulled)
attr title "queueing times, vector"
attr unit s
vector 286 prova5G.gNodeB8.x2ppp[1].ppp txPk:vector(packetBytes) ETV
attr interpolationmode none
attr source packetSentToLower
attr title "packets transmitted, vector(packetBytes)"
vector 287 prova5G.gNodeB9.x2ppp[0].ppp rcvdPkFromHl:vector(packetBytes) ETV
attr interpolationmode none
attr source packetReceivedFromUpper
attr title "packets received from higher layer, vector(packetBytes)"
vector 288 prova5G.gNodeB9.x2ppp[0].ppp.queue packetPushed:vector(packetBytes) ETV
attr interpolationmode none
attr title "packet pushed, vector(packetBytes)"
vector 289 prova5G.gNodeB9.x2ppp[0].ppp.queue queueLength:vector ETV
attr autoWarmupFilter false
attr interpolationmode sample-hold
attr source "warmup(count(packetPushed) - count(packetPulled) - count(packetRemoved) - count(packetDropped))"
attr title "queue length, vector"
attr type int
vector 290 prova5G.gNodeB9.x2ppp[0].ppp.queue packetPulled:vector(packetBytes) ETV
attr interpolationmode none
attr title "packet pulled, vector(packetBytes)"
vector 291 prova5G.gNodeB9.x2ppp[0].ppp.queue queueingTime:vector ETV
attr interpolationmode none
attr source queueingTime(packetPulled)
attr title "queueing times, vector"
attr unit s
vector 292 prova5G.gNodeB9.x2ppp[0].ppp txPk:vector(packetBytes) ETV
attr interpolationmode none
attr source packetSentToLower
attr title "packets transmitted, vector(packetBytes)"
vector 293 prova5G.gNodeB9.x2ppp[1].ppp rcvdPkFromHl:vector(packetBytes) ETV
attr interpolationmode none
attr source packetReceivedFromUpper
attr title "packets received from higher layer, vector(packetBytes)"
vector 294 prova5G.gNodeB9.x2ppp[1].ppp.queue packetPushed:vector(packetBytes) ETV
attr interpolationmode none
attr title "packet pushed, vector(packetBytes)"
vector 295 prova5G.gNodeB9.x2ppp[1].ppp.queue queueLength:vector ETV
attr autoWarmupFilter false
attr interpolationmode sample-hold
attr source "warmup(count(packetPushed) - count(packetPulled) - count(packetRemoved) - count(packetDropped))"
attr title "queue length, vector"
attr type int
vector 296 prova5G.gNodeB9.x2ppp[1].ppp.queue packetPulled:vector(packetBytes) ETV
attr interpolationmode none
attr title "packet pulled, vector(packetBytes)"
vector 297 prova5G.gNodeB9.x2ppp[1].ppp.queue queueingTime:vector ETV
attr interpolationmode none
attr source queueingTime(packetPulled)
attr title "queueing times, vector"
attr unit s
vector 298 prova5G.gNodeB9.x2ppp[1].ppp txPk:vector(packetBytes) ETV
attr interpolationmode none
attr source packetSentToLower
attr title "packets transmitted, vector(packetBytes)"
vector 299 prova5G.gNodeB10.x2ppp[0].ppp rcvdPkFromHl:vector(packetBytes) ETV
attr interpolationmode none
attr source packetReceivedFromUpper
attr title "packets received from higher layer, vector(packetBytes)"
vector 300 prova5G.gNodeB10.x2ppp[0].ppp.queue packetPushed:vector(packetBytes) ETV
attr interpolationmode none
attr title "packet pushed, vector(packetBytes)"
vector 301 prova5G.gNodeB10.x2ppp[0].ppp.queue queueLength:vector ETV
attr autoWarmupFilter false
attr interpolationmode sample-hold
attr source "warmup(count(packetPushed) - count(packetPulled) - count(packetRemoved) - count(packetDropped))"
attr title "queue length, vector"
attr type int
vector 302 prova5G.gNodeB10.x2ppp[0].ppp.queue packetPulled:vector(packetBytes) ETV
attr interpolationmode none
attr title "packet pulled, vector(packetBytes)"
vector 303 prova5G.gNodeB10.x2ppp[0].ppp.queue queueingTime:vector ETV
attr interpolationmode none
attr source queueingTime(packetPulled)
attr title "queueing times, vector"
attr unit s
vector 304 prova5G.gNodeB10.x2ppp[0].ppp txPk:vector(packetBytes) ETV
attr interpolationmode none
attr source packetSentToLower
attr title "packets transmitted, vector(packetBytes)"
vector 305 prova5G.gNodeB10.x2ppp[1].ppp rcvdPkFromHl:vector(packetBytes) ETV
attr interpolationmode none
attr source packetReceivedFromUpper
attr title "packets received from higher layer, vector(packetBytes)"
vector 306 prova5G.gNodeB10.x2ppp[1].ppp.queue packetPushed:vector(packetBytes) ETV
attr interpolationmode none
attr title "packet pushed, vector(packetBytes)"
vector 307 prova5G.gNodeB10.x2ppp[1].ppp.queue queueLength:vector ETV
attr autoWarmupFilter false
attr interpolationmode sample-hold
attr source "warmup(count(packetPushed) - count(packetPulled) - count(packetRemoved) - count(packetDropped))"
attr title "queue length, vector"
attr type int
vector 308 prova5G.gNodeB10.x2ppp[1].ppp.queue packetPulled:vector(packetBytes) ETV
attr interpolationmode none
attr title "packet pulled, vector(packetBytes)"
vector 309 prova5G.gNodeB10.x2ppp[1].ppp.queue queueingTime:vector ETV
attr interpolationmode none
attr source queueingTime(packetPulled)
attr title "queueing times, vector"
attr unit s
vector 310 prova5G.gNodeB10.x2ppp[1].ppp txPk:vector(packetBytes) ETV
attr interpolationmode none
attr source packetSentToLower
attr title "packets transmitted, vector(packetBytes)"
vector 311 prova5G.gNodeB11.x2ppp[0].ppp rcvdPkFromHl:vector(packetBytes) ETV
attr interpolationmode none
attr source packetReceivedFromUpper
attr title "packets received from higher layer, vector(packetBytes)"
vector 312 prova5G.gNodeB11.x2ppp[0].ppp.queue packetPushed:vector(packetBytes) ETV
attr interpolationmode none
attr title "packet pushed, vector(packetBytes)"
vector 313 prova5G.gNodeB11.x2ppp[0].ppp.queue queueLength:vector ETV
attr autoWarmupFilter false
attr interpolationmode sample-hold
attr source "warmup(count(packetPushed) - count(packetPulled) - count(packetRemoved) - count(packetDropped))"
attr title "queue length, vector"
attr type int
vector 314 prova5G.gNodeB11.x2ppp[0].ppp.queue packetPulled:vector(packetBytes) ETV
attr interpolationmode none
attr title "packet pulled, vector(packetBytes)"
vector 315 prova5G.gNodeB11.x2ppp[0].ppp.queue queueingTime:vector ETV
attr interpolationmode none
attr source queueingTime(packetPulled)
attr title "queueing times, vector"
attr unit s
vector 316 prova5G.gNodeB11.x2ppp[0].ppp txPk:vector(packetBytes) ETV
attr interpolationmode none
attr source packetSentToLower
attr title "packets transmitted, vector(packetBytes)"
vector 317 prova5G.gNodeB11.x2ppp[1].ppp rcvdPkFromHl:vector(packetBytes) ETV
attr interpolationmode none
attr source packetReceivedFromUpper
attr title "packets received from higher layer, vector(packetBytes)"
vector 318 prova5G.gNodeB11.x2ppp[1].ppp.queue packetPushed:vector(packetBytes) ETV
attr interpolationmode none
attr title "packet pushed, vector(packetBytes)"
vector 319 prova5G.gNodeB11.x2ppp[1].ppp.queue queueLength:vector ETV
attr autoWarmupFilter false
attr interpolationmode sample-hold
attr source "warmup(count(packetPushed) - count(packetPulled) - count(packetRemoved) - count(packetDropped))"
attr title "queue length, vector"
attr type int
vector 320 prova5G.gNodeB11.x2ppp[1].ppp.queue packetPulled:vector(packetBytes) ETV
attr interpolationmode none
attr title "packet pulled, vector(packetBytes)"
vector 321 prova5G.gNodeB11.x2ppp[1].ppp.queue queueingTime:vector ETV
attr interpolationmode none
attr source queueingTime(packetPulled)
attr title "queueing times, vector"
attr unit s
vector 322 prova5G.gNodeB11.x2ppp[1].ppp txPk:vector(packetBytes) ETV
attr interpolationmode none
attr source packetSentToLower
attr title "packets transmitted, vector(packetBytes)"
vector 323 prova5G.gNodeB12.x2ppp[0].ppp rcvdPkFromHl:vector(packetBytes) ETV
attr interpolationmode none
attr source packetReceivedFromUpper
attr title "packets received from higher layer, vector(packetBytes)"
vector 324 prova5G.gNodeB12.x2ppp[0].ppp.queue packetPushed:vector(packetBytes) ETV
attr interpolationmode none
attr title "packet pushed, vector(packetBytes)"
vector 325 prova5G.gNodeB12.x2ppp[0].ppp.queue queueLength:vector ETV
attr autoWarmupFilter false
attr interpolationmode sample-hold
attr source "warmup(count(packetPushed) - count(packetPulled) - count(packetRemoved) - count(packetDropped))"
attr title "queue length, vector"
attr type int
vector 326 prova5G.gNodeB12.x2ppp[0].ppp.queue packetPulled:vector(packetBytes) ETV
attr interpolationmode none
attr title "packet pulled, vector(packetBytes)"
vector 327 prova5G.gNodeB12.x2ppp[0].ppp.queue queueingTime:vector ETV
attr interpolationmode none
attr source queueingTime(packetPulled)
attr title "queueing times, vector"
attr unit s
vector 328 prova5G.gNodeB12.x2ppp[0].ppp txPk:vector(packetBytes) ETV
attr interpolationmode none
attr source packetSentToLower
attr title "packets transmitted, vector(packetBytes)"
vector 329 prova5G.gNodeB12.x2ppp[1].ppp rcvdPkFromHl:vector(packetBytes) ETV
attr interpolationmode none
attr source packetReceivedFromUpper
attr title "packets received from higher layer, vector(packetBytes)"
vector 330 prova5G.gNodeB12.x2ppp[1].ppp.queue packetPushed:vector(packetBytes) ETV
attr interpolationmode none
attr title "packet pushed, vector(packetBytes)"
vector 331 prova5G.gNodeB12.x2ppp[1].ppp.queue queueLength:vector ETV
attr autoWarmupFilter false
attr interpolationmode sample-hold
attr source "warmup(count(packetPushed) - count(packetPulled) - count(packetRemoved) - count(packetDropped))"
attr title "queue length, vector"
attr type int
vector 332 prova5G.gNodeB12.x2ppp[1].ppp.queue packetPulled:vector(packetBytes) ETV
attr interpolationmode none
attr title "packet pulled, vector(packetBytes)"
vector 333 prova5G.gNodeB12.x2ppp[1].ppp.queue queueingTime:vector ETV
attr interpolationmode none
attr source queueingTime(packetPulled)
attr title "queueing times, vector"
attr unit s
vector 334 prova5G.gNodeB12.x2ppp[1].ppp txPk:vector(packetBytes) ETV
attr interpolationmode none
attr source packetSentToLower
attr title "packets transmitted, vector(packetBytes)"
vector 335 prova5G.gNodeB13.x2ppp[0].ppp rcvdPkFromHl:vector(packetBytes) ETV
attr interpolationmode none
attr source packetReceivedFromUpper
attr title "packets received from higher layer, vector(packetBytes)"
vector 336 prova5G.gNodeB13.x2ppp[0].ppp.queue packetPushed:vector(packetBytes) ETV
attr interpolationmode none
attr title "packet pushed, vector(packetBytes)"
vector 337 prova5G.gNodeB13.x2ppp[0].ppp.queue queueLength:vector ETV
attr autoWarmupFilter false
attr interpolationmode sample-hold
attr source "warmup(count(packetPushed) - count(packetPulled) - count(packetRemoved) - count(packetDropped))"
attr title "queue length, vector"
attr type int
vector 338 prova5G.gNodeB13.x2ppp[0].ppp.queue packetPulled:vector(packetBytes) ETV
attr interpolationmode none
attr title "packet pulled, vector(packetBytes)"
vector 339 prova5G.gNodeB13.x2ppp[0].ppp.queue queueingTime:vector ETV
attr interpolationmode none
attr source queueingTime(packetPulled)
attr title "queueing times, vector"
attr unit s
vector 340 prova5G.gNodeB13.x2ppp[0].ppp txPk:vector(packetBytes) ETV
attr interpolationmode none
attr source packetSentToLower
attr title "packets transmitted, vector(packetBytes)"
vector 341 prova5G.gNodeB13.x2ppp[1].ppp rcvdPkFromHl:vector(packetBytes) ETV
attr interpolationmode none
attr source packetReceivedFromUpper
attr title "packets received from higher layer, vector(packetBytes)"
vector 342 prova5G.gNodeB13.x2ppp[1].ppp.queue packetPushed:vector(packetBytes) ETV
attr interpolationmode none
attr title "packet pushed, vector(packetBytes)"
vector 343 prova5G.gNodeB13.x2ppp[1].ppp.queue queueLength:vector ETV
attr autoWarmupFilter false
attr interpolationmode sample-hold
attr source "warmup(count(packetPushed) - count(packetPulled) - count(packetRemoved) - count(packetDropped))"
attr title "queue length, vector"
attr type int
vector 344 prova5G.gNodeB13.x2ppp[1].ppp.queue packetPulled:vector(packetBytes) ETV
attr interpolationmode none
attr title "packet pulled, vector(packetBytes)"
vector 345 prova5G.gNodeB13.x2ppp[1].ppp.queue queueingTime:vector ETV
attr interpolationmode none
attr source queueingTime(packetPulled)
attr title "queueing times, vector"
attr unit s
vector 346 prova5G.gNodeB13.x2ppp[1].ppp txPk:vector(packetBytes) ETV
attr interpolationmode none
attr source packetSentToLower
attr title "packets transmitted, vector(packetBytes)"
vector 347 prova5G.gNodeB14.x2ppp[0].ppp rcvdPkFromHl:vector(packetBytes) ETV
attr interpolationmode none
attr source packetReceivedFromUpper
attr title "packets received from higher layer, vector(packetBytes)"
vector 348 prova5G.gNodeB14.x2ppp[0].ppp.queue packetPushed:vector(packetBytes) ETV
attr interpolationmode none
attr title "packet pushed, vector(packetBytes)"
vector 349 prova5G.gNodeB14.x2ppp[0].ppp.queue queueLength:vector ETV
attr autoWarmupFilter false
attr interpolationmode sample-hold
attr source "warmup(count(packetPushed) - count(packetPulled) - count(packetRemoved) - count(packetDropped))"
attr title "queue length, vector"
attr type int
vector 350 prova5G.gNodeB14.x2ppp[0].ppp.queue packetPulled:vector(packetBytes) ETV
attr interpolationmode none
attr title "packet pulled, vector(packetBytes)"
vector 351 prova5G.gNodeB14.x2ppp[0].ppp.queue queueingTime:vector ETV
attr interpolationmode none
attr source queueingTime(packetPulled)
attr title "queueing times, vector"
attr unit s
vector 352 prova5G.gNodeB14.x2ppp[0].ppp txPk:vector(packetBytes) ETV
attr interpolationmode none
attr source packetSentToLower
attr title "packets transmitted, vector(packetBytes)"
vector 353 prova5G.gNodeB14.x2ppp[1].ppp rcvdPkFromHl:vector(packetBytes) ETV
attr interpolationmode none
attr source packetReceivedFromUpper
attr title "packets received from higher layer, vector(packetBytes)"
vector 354 prova5G.gNodeB14.x2ppp[1].ppp.queue packetPushed:vector(packetBytes) ETV
attr interpolationmode none
attr title "packet pushed, vector(packetBytes)"
vector 355 prova5G.gNodeB14.x2ppp[1].ppp.queue queueLength:vector ETV
attr autoWarmupFilter false
attr interpolationmode sample-hold
attr source "warmup(count(packetPushed) - count(packetPulled) - count(packetRemoved) - count(packetDropped))"
attr title "queue length, vector"
attr type int
vector 356 prova5G.gNodeB14.x2ppp[1].ppp.queue packetPulled:vector(packetBytes) ETV
attr interpolationmode none
attr title "packet pulled, vector(packetBytes)"
vector 357 prova5G.gNodeB14.x2ppp[1].ppp.queue queueingTime:vector ETV
attr interpolationmode none
attr source queueingTime(packetPulled)
attr title "queueing times, vector"
attr unit s
vector 358 prova5G.gNodeB14.x2ppp[1].ppp txPk:vector(packetBytes) ETV
attr interpolationmode none
attr source packetSentToLower
attr title "packets transmitted, vector(packetBytes)"
vector 359 prova5G.gNodeB15.x2ppp[0].ppp rcvdPkFromHl:vector(packetBytes) ETV
attr interpolationmode none
attr source packetReceivedFromUpper
attr title "packets received from higher layer, vector(packetBytes)"
vector 360 prova5G.gNodeB15.x2ppp[0].ppp.queue packetPushed:vector(packetBytes) ETV
attr interpolationmode none
attr title "packet pushed, vector(packetBytes)"
vector 361 prova5G.gNodeB15.x2ppp[0].ppp.queue queueLength:vector ETV
attr autoWarmupFilter false
attr interpolationmode sample-hold
attr source "warmup(count(packetPushed) - count(packetPulled) - count(packetRemoved) - count(packetDropped))"
attr title "queue length, vector"
attr type int
vector 362 prova5G.gNodeB15.x2ppp[0].ppp.queue packetPulled:vector(packetBytes) ETV
attr interpolationmode none
attr title "packet pulled, vector(packetBytes)"
vector 363 prova5G.gNodeB15.x2ppp[0].ppp.queue queueingTime:vector ETV
attr interpolationmode none
attr source queueingTime(packetPulled)
attr title "queueing times, vector"
attr unit s
vector 364 prova5G.gNodeB15.x2ppp[0].ppp txPk:vector(packetBytes) ETV
attr interpolationmode none
attr source packetSentToLower
attr title "packets transmitted, vector(packetBytes)"
vector 365 prova5G.gNodeB15.x2ppp[1].ppp rcvdPkFromHl:vector(packetBytes) ETV
attr interpolationmode none
attr source packetReceivedFromUpper
attr title "packets received from higher layer, vector(packetBytes)"
vector 366 prova5G.gNodeB15.x2ppp[1].ppp.queue packetPushed:vector(packetBytes) ETV
attr interpolationmode none
attr title "packet pushed, vector(packetBytes)"
vector 367 prova5G.gNodeB15.x2ppp[1].ppp.queue queueLength:vector ETV
attr autoWarmupFilter false
attr interpolationmode sample-hold
attr source "warmup(count(packetPushed) - count(packetPulled) - count(packetRemoved) - count(packetDropped))"
attr title "queue length, vector"
attr type int
vector 368 prova5G.gNodeB15.x2ppp[1].ppp.queue packetPulled:vector(packetBytes) ETV
attr interpolationmode none
attr title "packet pulled, vector(packetBytes)"
vector 369 prova5G.gNodeB15.x2ppp[1].ppp.queue queueingTime:vector ETV
attr interpolationmode none
attr source queueingTime(packetPulled)
attr title "queueing times, vector"
attr unit s
vector 370 prova5G.gNodeB15.x2ppp[1].ppp txPk:vector(packetBytes) ETV
attr interpolationmode none
attr source packetSentToLower
attr title "packets transmitted, vector(packetBytes)"
vector 371 prova5G.gNodeB16.x2ppp[0].ppp rcvdPkFromHl:vector(packetBytes) ETV
attr interpolationmode none
attr source packetReceivedFromUpper
attr title "packets received from higher layer, vector(packetBytes)"
vector 372 prova5G.gNodeB16.x2ppp[0].ppp.queue packetPushed:vector(packetBytes) ETV
attr interpolationmode none
attr title "packet pushed, vector(packetBytes)"
vector 373 prova5G.gNodeB16.x2ppp[0].ppp.queue queueLength:vector ETV
attr autoWarmupFilter false
attr interpolationmode sample-hold
attr source "warmup(count(packetPushed) - count(packetPulled) - count(packetRemoved) - count(packetDropped))"
attr title "queue length, vector"
attr type int
vector 374 prova5G.gNodeB16.x2ppp[0].ppp.queue packetPulled:vector(packetBytes) ETV
attr interpolationmode none
attr title "packet pulled, vector(packetBytes)"
vector 375 prova5G.gNodeB16.x2ppp[0].ppp.queue queueingTime:vector ETV
attr interpolationmode none
attr source queueingTime(packetPulled)
attr title "queueing times, vector"
attr unit s
vector 376 prova5G.gNodeB16.x2ppp[0].ppp txPk:vector(packetBytes) ETV
attr interpolationmode none
attr source packetSentToLower
attr title "packets transmitted, vector(packetBytes)"
vector 377 prova5G.gNodeB16.x2ppp[1].ppp rcvdPkFromHl:vector(packetBytes) ETV
attr interpolationmode none
attr source packetReceivedFromUpper
attr title "packets received from higher layer, vector(packetBytes)"
vector 378 prova5G.gNodeB16.x2ppp[1].ppp.queue packetPushed:vector(packetBytes) ETV
attr interpolationmode none
attr title "packet pushed, vector(packetBytes)"
vector 379 prova5G.gNodeB16.x2ppp[1].ppp.queue queueLength:vector ETV
attr autoWarmupFilter false
attr interpolationmode sample-hold
attr source "warmup(count(packetPushed) - count(packetPulled) - count(packetRemoved) - count(packetDropped))"
attr title "queue length, vector"
attr type int
vector 380 prova5G.gNodeB16.x2ppp[1].ppp.queue packetPulled:vector(packetBytes) ETV
attr interpolationmode none
attr title "packet pulled, vector(packetBytes)"
vector 381 prova5G.gNodeB16.x2ppp[1].ppp.queue queueingTime:vector ETV
attr interpolationmode none
attr source queueingTime(packetPulled)
attr title "queueing times, vector"
attr unit s
vector 382 prova5G.gNodeB16.x2ppp[1].ppp txPk:vector(packetBytes) ETV
attr interpolationmode none
attr source packetSentToLower
attr title "packets transmitted, vector(packetBytes)"
vector 383 prova5G.gNodeB17.x2ppp[0].ppp rcvdPkFromHl:vector(packetBytes) ETV
attr interpolationmode none
attr source packetReceivedFromUpper
attr title "packets received from higher layer, vector(packetBytes)"
vector 384 prova5G.gNodeB17.x2ppp[0].ppp.queue packetPushed:vector(packetBytes) ETV
attr interpolationmode none
attr title "packet pushed, vector(packetBytes)"
vector 385 prova5G.gNodeB17.x2ppp[0].ppp.queue queueLength:vector ETV
attr autoWarmupFilter false
attr interpolationmode sample-hold
attr source "warmup(count(packetPushed) - count(packetPulled) - count(packetRemoved) - count(packetDropped))"
attr title "queue length, vector"
attr type int
vector 386 prova5G.gNodeB17.x2ppp[0].ppp.queue packetPulled:vector(packetBytes) ETV
attr interpolationmode none
attr title "packet pulled, vector(packetBytes)"
vector 387 prova5G.gNodeB17.x2ppp[0].ppp.queue queueingTime:vector ETV
attr interpolationmode none
attr source queueingTime(packetPulled)
attr title "queueing times, vector"
attr unit s
vector 388 prova5G.gNodeB17.x2ppp[0].ppp txPk:vector(packetBytes) ETV
attr interpolationmode none
attr source packetSentToLower
attr title "packets transmitted, vector(packetBytes)"
vector 389 prova5G.gNodeB17.x2ppp[1].ppp rcvdPkFromHl:vector(packetBytes) ETV
attr interpolationmode none
attr source packetReceivedFromUpper
attr title "packets received from higher layer, vector(packetBytes)"
vector 390 prova5G.gNodeB17.x2ppp[1].ppp.queue packetPushed:vector(packetBytes) ETV
attr interpolationmode none
attr title "packet pushed, vector(packetBytes)"
vector 391 prova5G.gNodeB17.x2ppp[1].ppp.queue queueLength:vector ETV
attr autoWarmupFilter false
attr interpolationmode sample-hold
attr source "warmup(count(packetPushed) - count(packetPulled) - count(packetRemoved) - count(packetDropped))"
attr title "queue length, vector"
attr type int
vector 392 prova5G.gNodeB17.x2ppp[1].ppp.queue packetPulled:vector(packetBytes) ETV
attr interpolationmode none
attr title "packet pulled, vector(packetBytes)"
vector 393 prova5G.gNodeB17.x2ppp[1].ppp.queue queueingTime:vector ETV
attr interpolationmode none
attr source queueingTime(packetPulled)
attr title "queueing times, vector"
attr unit s
vector 394 prova5G.gNodeB17.x2ppp[1].ppp txPk:vector(packetBytes) ETV
attr interpolationmode none
attr source packetSentToLower
attr title "packets transmitted, vector(packetBytes)"
vector 395 prova5G.gNodeB2.x2ppp[0].ppp rxPkOk:vector(packetBytes) ETV
attr interpolationmode none
attr source rxPkOk
attr title "packets received OK, vector(packetBytes)"
vector 396 prova5G.gNodeB2.x2ppp[0].ppp passedUpPk:vector(packetBytes) ETV
attr interpolationmode none
attr source packetSentToUpper
attr title "packets passed to higher layer, vector(packetBytes)"
vector 397 prova5G.gNodeB17.x2ppp[1].ppp rxPkOk:vector(packetBytes) ETV
attr interpolationmode none
attr source rxPkOk
attr title "packets received OK, vector(packetBytes)"
vector 398 prova5G.gNodeB17.x2ppp[1].ppp passedUpPk:vector(packetBytes) ETV
attr interpolationmode none
attr source packetSentToUpper
attr title "packets passed to higher layer, vector(packetBytes)"
vector 399 prova5G.gNodeB1.x2ppp[0].ppp rxPkOk:vector(packetBytes) ETV
attr interpolationmode none
attr source rxPkOk
attr title "packets received OK, vector(packetBytes)"
vector 400 prova5G.gNodeB1.x2ppp[0].ppp passedUpPk:vector(packetBytes) ETV
attr interpolationmode none
attr source packetSentToUpper
attr title "packets passed to higher layer, vector(packetBytes)"
vector 401 prova5G.gNodeB3.x2ppp[0].ppp rxPkOk:vector(packetBytes) ETV
attr interpolationmode none
attr source rxPkOk
attr title "packets received OK, vector(packetBytes)"
vector 402 prova5G.gNodeB3.x2ppp[0].ppp passedUpPk:vector(packetBytes) ETV
attr interpolationmode none
attr source packetSentToUpper
attr title "packets passed to higher layer, vector(packetBytes)"
vector 403 prova5G.gNodeB2.x2ppp[1].ppp rxPkOk:vector(packetBytes) ETV
attr interpolationmode none
attr source rxPkOk
attr title "packets received OK, vector(packetBytes)"
vector 404 prova5G.gNodeB2.x2ppp[1].ppp passedUpPk:vector(packetBytes) ETV
attr interpolationmode none
attr source packetSentToUpper
attr title "packets passed to higher layer, vector(packetBytes)"
vector 405 prova5G.gNodeB4.x2ppp[0].ppp rxPkOk:vector(packetBytes) ETV
attr interpolationmode none
attr source rxPkOk
attr title "packets received OK, vector(packetBytes)"
vector 406 prova5G.gNodeB4.x2ppp[0].ppp passedUpPk:vector(packetBytes) ETV
attr interpolationmode none
attr source packetSentToUpper
attr title "packets passed to higher layer, vector(packetBytes)"
vector 407 prova5G.gNodeB3.x2ppp[1].ppp rxPkOk:vector(packetBytes) ETV
attr interpolationmode none
attr source rxPkOk
attr title "packets received OK, vector(packetBytes)"
vector 408 prova5G.gNodeB3.x2ppp[1].ppp passedUpPk:vector(packetBytes) ETV
attr interpolationmode none
attr source packetSentToUpper
attr title "packets passed to higher layer, vector(packetBytes)"
vector 409 prova5G.gNodeB5.x2ppp[0].ppp rxPkOk:vector(packetBytes) ETV
attr interpolationmode none
attr source rxPkOk
attr title "packets received OK, vector(packetBytes)"
vector 410 prova5G.gNodeB5.x2ppp[0].ppp passedUpPk:vector(packetBytes) ETV
attr interpolationmode none
attr source packetSentToUpper
attr title "packets passed to higher layer, vector(packetBytes)"
vector 411 prova5G.gNodeB4.x2ppp[1].ppp rxPkOk:vector(packetBytes) ETV
attr interpolationmode none
attr source rxPkOk
attr title "packets received OK, vector(packetBytes)"
vector 412 prova5G.gNodeB4.x2ppp[1].ppp passedUpPk:vector(packetBytes) ETV
attr interpolationmode none
attr source packetSentToUpper
attr title "packets passed to higher layer, vector(packetBytes)"
vector 413 prova5G.gNodeB6.x2ppp[0].ppp rxPkOk:vector(packetBytes) ETV
attr interpolationmode none
attr source rxPkOk
attr title "packets received OK, vector(packetBytes)"
vector 414 prova5G.gNodeB6.x2ppp[0].ppp passedUpPk:vector(packetBytes) ETV
attr interpolationmode none
attr source packetSentToUpper
attr title "packets passed to higher layer, vector(packetBytes)"
vector 415 prova5G.gNodeB5.x2ppp[1].ppp rxPkOk:vector(packetBytes) ETV
attr interpolationmode none
attr source rxPkOk
attr title "packets received OK, vector(packetBytes)"
vector 416 prova5G.gNodeB5.x2ppp[1].ppp passedUpPk:vector(packetBytes) ETV
attr interpolationmode none
attr source packetSentToUpper
attr title "packets passed to higher layer, vector(packetBytes)"
vector 417 prova5G.gNodeB7.x2ppp[0].ppp rxPkOk:vector(packetBytes) ETV
attr interpolationmode none
attr source rxPkOk
attr title "packets received OK, vector(packetBytes)"
vector 418 prova5G.gNodeB7.x2ppp[0].ppp passedUpPk:vector(packetBytes) ETV
attr interpolationmode none
attr source packetSentToUpper
attr title "packets passed to higher layer, vector(packetBytes)"
vector 419 prova5G.gNodeB6.x2ppp[1].ppp rxPkOk:vector(packetBytes) ETV
attr interpolationmode none
attr source rxPkOk
attr title "packets received OK, vector(packetBytes)"
vector 420 prova5G.gNodeB6.x2ppp[1].ppp passedUpPk:vector(packetBytes) ETV
attr interpolationmode none
attr source packetSentToUpper
attr title "packets passed to higher layer, vector(packetBytes)"
vector 421 prova5G.gNodeB8.x2ppp[0].ppp rxPkOk:vector(packetBytes) ETV
attr interpolationmode none
attr source rxPkOk
attr title "packets received OK, vector(packetBytes)"
vector 422 prova5G.gNodeB8.x2ppp[0].ppp passedUpPk:vector(packetBytes) ETV
attr interpolationmode none
attr source packetSentToUpper
attr title "packets passed to higher layer, vector(packetBytes)"
vector 423 prova5G.gNodeB7.x2ppp[1].ppp rxPkOk:vector(packetBytes) ETV
attr interpolationmode none
attr source rxPkOk
attr title "packets received OK, vector(packetBytes)"
vector 424 prova5G.gNodeB7.x2ppp[1].ppp passedUpPk:vector(packetBytes) ETV
attr interpolationmode none
attr source packetSentToUpper
attr title "packets passed to higher layer, vector(packetBytes)"
vector 425 prova5G.gNodeB9.x2ppp[0].ppp rxPkOk:vector(packetBytes) ETV
attr interpolationmode none
attr source rxPkOk
attr title "packets received OK, vector(packetBytes)"
vector 426 prova5G.gNodeB9.x2ppp[0].ppp passedUpPk:vector(packetBytes) ETV
attr interpolationmode none
attr source packetSentToUpper
attr title "packets passed to higher layer, vector(packetBytes)"
vector 427 prova5G.gNodeB8.x2ppp[1].ppp rxPkOk:vector(packetBytes) ETV
attr interpolationmode none
attr source rxPkOk
attr title "packets received OK, vector(packetBytes)"
vector 428 prova5G.gNodeB8.x2ppp[1].ppp passedUpPk:vector(packetBytes) ETV
attr interpolationmode none
attr source packetSentToUpper
attr title "packets passed to higher layer, vector(packetBytes)"
vector 429 prova5G.gNodeB10.x2ppp[0].ppp rxPkOk:vector(packetBytes) ETV
attr interpolationmode none
attr source rxPkOk
attr title "packets received OK, vector(packetBytes)"
vector 430 prova5G.gNodeB10.x2ppp[0].ppp passedUpPk:vector(packetBytes) ETV
attr interpolationmode none
attr source packetSentToUpper
attr title "packets passed to higher layer, vector(packetBytes)"
vector 431 prova5G.gNodeB9.x2ppp[1].ppp rxPkOk:vector(packetBytes) ETV
attr interpolationmode none
attr source rxPkOk
attr title "packets received OK, vector(packetBytes)"
vector 432 prova5G.gNodeB9.x2ppp[1].ppp passedUpPk:vector(packetBytes) ETV
attr interpolationmode none
attr source packetSentToUpper
attr title "packets passed to higher layer, vector(packetBytes)"
vector 433 prova5G.gNodeB11.x2ppp[0].ppp rxPkOk:vector(packetBytes) ETV
attr interpolationmode none
attr source rxPkOk
attr title "packets received OK, vector(packetBytes)"
vector 434 prova5G.gNodeB11.x2ppp[0].ppp passedUpPk:vector(packetBytes) ETV
attr interpolationmode none
attr source packetSentToUpper
attr title "packets passed to higher layer, vector(packetBytes)"
vector 435 prova5G.gNodeB10.x2ppp[1].ppp rxPkOk:vector(packetBytes) ETV
attr interpolationmode none
attr source rxPkOk
attr title "packets received OK, vector(packetBytes)"
vector 436 prova5G.gNodeB10.x2ppp[1].ppp passedUpPk:vector(packetBytes) ETV
attr interpolationmode none
attr source packetSentToUpper
attr title "packets passed to higher layer, vector(packetBytes)"
vector 437 prova5G.gNodeB12.x2ppp[0].ppp rxPkOk:vector(packetBytes) ETV
attr interpolationmode none
attr source rxPkOk
attr title "packets received OK, vector(packetBytes)"
vector 438 prova5G.gNodeB12.x2ppp[0].ppp passedUpPk:vector(packetBytes) ETV
attr interpolationmode none
attr source packetSentToUpper
attr title "packets passed to higher layer, vector(packetBytes)"
vector 439 prova5G.gNodeB11.x2ppp[1].ppp rxPkOk:vector(packetBytes) ETV
attr interpolationmode none
attr source rxPkOk
attr title "packets received OK, vector(packetBytes)"
vector 440 prova5G.gNodeB11.x2ppp[1].ppp passedUpPk:vector(packetBytes) ETV
attr interpolationmode none
attr source packetSentToUpper
attr title "packets passed to higher layer, vector(packetBytes)"
vector 441 prova5G.gNodeB13.x2ppp[0].ppp rxPkOk:vector(packetBytes) ETV
attr interpolationmode none
attr source rxPkOk
attr title "packets received OK, vector(packetBytes)"
vector 442 prova5G.gNodeB13.x2ppp[0].ppp passedUpPk:vector(packetBytes) ETV
attr interpolationmode none
attr source packetSentToUpper
attr title "packets passed to higher layer, vector(packetBytes)"
vector 443 prova5G.gNodeB12.x2ppp[1].ppp rxPkOk:vector(packetBytes) ETV
attr interpolationmode none
attr source rxPkOk
attr title "packets received OK, vector(packetBytes)"
vector 444 prova5G.gNodeB12.x2ppp[1].ppp passedUpPk:vector(packetBytes) ETV
attr interpolationmode none
attr source packetSentToUpper
attr title "packets passed to higher layer, vector(packetBytes)"
vector 445 prova5G.gNodeB14.x2ppp[0].ppp rxPkOk:vector(packetBytes) ETV
attr interpolationmode none
attr source rxPkOk
attr title "packets received OK, vector(packetBytes)"
vector 446 prova5G.gNodeB14.x2ppp[0].ppp passedUpPk:vector(packetBytes) ETV
attr interpolationmode none
attr source packetSentToUpper
attr title "packets passed to higher layer, vector(packetBytes)"
vector 447 prova5G.gNodeB13.x2ppp[1].ppp rxPkOk:vector(packetBytes) ETV
attr interpolationmode none
attr source rxPkOk
attr title "packets received OK, vector(packetBytes)"
vector 448 prova5G.gNodeB13.x2ppp[1].ppp passedUpPk:vector(packetBytes) ETV
attr interpolationmode none
attr source packetSentToUpper
attr title "packets passed to higher layer, vector(packetBytes)"
vector 449 prova5G.gNodeB15.x2ppp[0].ppp rxPkOk:vector(packetBytes) ETV
attr interpolationmode none
attr source rxPkOk
attr title "packets received OK, vector(packetBytes)"
vector 450 prova5G.gNodeB15.x2ppp[0].ppp passedUpPk:vector(packetBytes) ETV
attr interpolationmode none
attr source packetSentToUpper
attr title "packets passed to higher layer, vector(packetBytes)"
vector 451 prova5G.gNodeB14.x2ppp[1].ppp rxPkOk:vector(packetBytes) ETV
attr interpolationmode none
attr source rxPkOk
attr title "packets received OK, vector(packetBytes)"
vector 452 prova5G.gNodeB14.x2ppp[1].ppp passedUpPk:vector(packetBytes) ETV
attr interpolationmode none
attr source packetSentToUpper
attr title "packets passed to higher layer, vector(packetBytes)"
vector 453 prova5G.gNodeB16.x2ppp[0].ppp rxPkOk:vector(packetBytes) ETV
attr interpolationmode none
attr source rxPkOk
attr title "packets received OK, vector(packetBytes)"
vector 454 prova5G.gNodeB16.x2ppp[0].ppp passedUpPk:vector(packetBytes) ETV
attr interpolationmode none
attr source packetSentToUpper
attr title "packets passed to higher layer, vector(packetBytes)"
[...]
3396	51899963 1738 2557860 2587384 34.102 34.39 49 36.790349523064 38.697010683629 1894.1204353411 73221.760164406
3397	51901701 989 2557962 2587271 34.103 34.389 45 1 1 45 45
3398	51902690 330 2558131 2586592 34.105 34.384 15 1 1 15 15
3399	51903020 660 2558133 2587085 34.105 34.388 30 0 0 0 0
3400	51903680 345 2558133 2586594 34.105 34.384 15 71 71 1065 75615
3401	51904025 345 2558189 2586659 34.105 34.384 15 11 11 165 1815
3402	51904370 536 2558303 2586824 34.106 34.385 15 17.309544614949 24.878003051149 362.60437237141 8824.0897845968
3403	51904906 390 2558540 2587082 34.109 34.388 15 0.004 0.004 0.06 0.00024
3404	51905296 330 2558544 2587085 34.109 34.388 15 0 0 0 0
3405	51905626 390 2558544 2587085 34.109 34.388 15 0.004 0.004 0.06 0.00024
3406	51906016 539 2558544 2587085 34.109 34.388 15 2.0229265003372 30.097708502966 241.43798585134 5012.1345388626
3407	51906555 330 2558544 2587085 34.109 34.388 15 0 0 0 0
3408	51906885 390 2558544 2587085 34.109 34.388 15 0.008 0.009 0.121 0.000977
3409	51907275 330 2558544 2587085 34.109 34.388 15 0 0 0 0
3410	51907605 644 2558601 2587161 34.1090003588 34.3880003588 15 9.3816880188176 139.58357420953 1119.7123864363 107801.42114011
3411	51908249 329 2558694 2587271 34.11 34.389 15 0 0 0 0
3412	51908578 329 2558694 2587271 34.11 34.389 15 0 0 0 0
3413	51908907 329 2558694 2587271 34.11 34.389 15 1 1 15 15
1	51909236 130 2587504 2587934 34.3910002488 34.3950002488 5 0 1 3 3
20	51909366 162 2587500 2587931 34.3910001388 34.3950001988 6 0 1 3 3
21	51909528 47 2587887 2587925 34.395 34.3950000888 2 0 1 1 1
29	51909575 47 2587455 2587495 34.391 34.3910000888 2 0 1 1 1
37	51909622 47 2587671 2587705 34.393 34.3930000888 2 0 1 1 1
2231	51909669 110 2587443 2587877 34.391 34.395 5 0 0 0 0
2232	51909779 110 2587443 2587877 34.391 34.395 5 0 0 0 0
2233	51909889 110 2587444 2587888 34.391 34.395 5 0 1 1 1
2234	51909999 110 2587444 2587888 34.391 34.395 5 0 0 0 0
2235	51910109 110 2587445 2587889 34.391 34.395 5 0 0 0 0
2236	51910219 110 2587445 2587889 34.391 34.395 5 0 0 0 0
2237	51910329 110 2587456 2587890 34.391 34.395 5 0 1 1 1
2238	51910439 110 2587456 2587890 34.391 34.395 5 0 0 0 0
2239	51910549 110 2587457 2587891 34.391 34.395 5 0 0 0 0
2240	51910659 110 2587457 2587891 34.391 34.395 5 0 0 0 0
2241	51910769 110 2587458 2587892 34.391 34.395 5 0 0 0 0
2242	51910879 110 2587458 2587892 34.391 34.395 5 0 0 0 0
2243	51910989 110 2587459 2587893 34.391 34.395 5 0 0 0 0
2244	51911099 110 2587459 2587893 34.391 34.395 5 0 0 0 0
2245	51911209 110 2587460 2587894 34.391 34.395 5 0 0 0 0
2246	51911319 110 2587460 2587894 34.391 34.395 5 0 0 0 0
2247	51911429 110 2587461 2587895 34.391 34.395 5 0 0 0 0
2248	51911539 110 2587461 2587895 34.391 34.395 5 0 0 0 0
2249	51911649 110 2587462 2587896 34.391 34.395 5 0 0 0 0
2250	51911759 110 2587462 2587896 34.391 34.395 5 0 0 0 0
2251	51911869 110 2587463 2587897 34.391 34.395 5 0 0 0 0
2252	51911979 110 2587463 2587897 34.391 34.395 5 0 0 0 0
2253	51912089 110 2587464 2587898 34.391 34.395 5 0 0 0 0
2254	51912199 110 2587464 2587898 34.391 34.395 5 0 0 0 0
2255	51912309 110 2587465 2587899 34.391 34.395 5 0 0 0 0
2256	51912419 110 2587465 2587899 34.391 34.395 5 0 0 0 0
2257	51912529 110 2587466 2587900 34.391 34.395 5 0 1 1 1
2258	51912639 110 2587466 2587900 34.391 34.395 5 0 0 0 0
2259	51912749 110 2587468 2587901 34.391 34.395 5 0 0 0 0
2260	51912859 110 2587468 2587901 34.391 34.395 5 0 0 0 0
2261	51912969 110 2587469 2587902 34.391 34.395 5 0 0 0 0
2262	51913079 110 2587469 2587902 34.391 34.395 5 0 0 0 0
2263	51913189 110 2587470 2587903 34.391 34.395 5 0 0 0 0
2264	51913299 110 2587470 2587903 34.391 34.395 5 0 0 0 0
2274	51913409 36 2587587 2587587 34.392 34.392 1 22.627382052829 22.627382052829 22.627382052829 511.99841856468
2275	51913445 36 2587587 2587587 34.392 34.392 1 40.003837581191 40.003837581191 40.003837581191 1600.3070212223
2276	51913481 67 2587590 2587813 34.392 34.394 3 1 73 75 5331
2277	51913548 22 2587877 2587877 34.395 34.395 1 1 1 1 1
2285	51913570 23 2587877 2587877 34.395 34.395 1 71 71 71 5041
2286	51913593 23 2587880 2587880 34.395 34.395 1 71 71 71 5041
2296	51913616 23 2587880 2587880 34.395 34.395 1 69 69 69 4761
2297	51913639 23 2587881 2587881 34.395 34.395 1 69 69 69 4761
2298	51913662 23 2587881 2587881 34.395 34.395 1 68 68 68 4624
2299	51913685 23 2587885 2587885 34.395 34.395 1 84 84 84 7056
2300	51913708 24 2587887 2587887 34.395 34.395 1 104 104 104 10816
2301	51913732 24 2587887 2587887 34.395 34.395 1 104 104 104 10816
2302	51913756 44 2587887 2587887 34.395 34.395 2 0 1 1 1
2303	51913800 24 2587887 2587887 34.395 34.395 1 104 104 104 10816
2304	51913824 22 2587887 2587887 34.395 34.395 1 0 0 0 0
2305	51913846 24 2587887 2587887 34.395 34.395 1 111 111 111 12321
2306	51913870 31 2587926 2587926 34.3950001388 34.3950001388 1 111 111 111 12321
2307	51913901 31 2587926 2587926 34.3950001388 34.3950001388 1 104 104 104 10816
2308	51913932 90 2587498 2587928 34.3910001388 34.3950001388 3 84 84 252 21168
2309	51914022 99 2587498 2587928 34.3910001388 34.3950001388 3 10067 10069 30204 304093874
2310	51914121 90 2587500 2587930 34.3910001388 34.3950001388 3 68 68 204 13872
2311	51914211 90 2587500 2587930 34.3910001388 34.3950001388 3 68 68 204 13872
2312	51914301 174 2587500 2587930 34.3910001388 34.3950001388 6 0 1 3 3
2313	51914475 90 2587500 2587930 34.3910001388 34.3950001388 3 68 68 204 13872
2314	51914565 87 2587500 2587930 34.3910001388 34.3950001388 3 0 0 0 0
2315	51914652 90 2587500 2587930 34.3910001388 34.3950001388 3 75 75 225 16875
2316	51914742 90 2587502 2587932 34.3910002488 34.3950002488 3 75 75 225 16875
2317	51914832 90 2587502 2587932 34.3910002488 34.3950002488 3 68 68 204 13872
2318	51914922 90 2587504 2587934 34.3910002488 34.3950002488 3 68 68 204 13872
2319	51915012 90 2587504 2587934 34.3910002488 34.3950002488 3 68 68 204 13872
2320	51915102 174 2587504 2587934 34.3910002488 34.3950002488 6 0 1 3 3
2321	51915276 90 2587504 2587934 34.3910002488 34.3950002488 3 68 68 204 13872
2322	51915366 87 2587504 2587934 34.3910002488 34.3950002488 3 0 0 0 0
2323	51915453 90 2587504 2587934 34.3910002488 34.3950002488 3 75 75 225 16875
2324	51915543 60 2587506 2587716 34.3910003588 34.3930003588 2 75 75 150 11250
2325	51915603 60 2587506 2587716 34.3910003588 34.3930003588 2 68 68 136 9248
2326	51915663 60 2587508 2587718 34.3910003588 34.3930003588 2 48 48 96 4608
2327	51915723 66 2587508 2587718 34.3910003588 34.3930003588 2 10067 10068 20135 202709113
2339	51915789 36 2587802 2587802 34.394 34.394 1 29.609360968115 29.609360968115 29.609360968115 876.71425694013
2340	51915825 36 2587802 2587802 34.394 34.394 1 46.673793664162 46.673793664162 46.673793664162 2178.4430150048
2341	51915861 22 2587819 2587819 34.394 34.394 1 1 1 1 1
2343	51915883 22 2587664 2587664 34.393 34.393 1 0 0 0 0
2346	51915905 35 2587395 2587395 34.39 34.39 1 29.809685361466 29.809685361466 29.809685361466 888.61734134959
2347	51915940 26 2587661 2587661 34.393 34.393 1 0.004 0.004 0.004 1.6e-05
2348	51915966 22 2587664 2587664 34.393 34.393 1 0 0 0 0
2349	51915988 26 2587664 2587664 34.393 34.393 1 0.004 0.004 0.004 1.6e-05
2350	51916014 22 2587664 2587664 34.393 34.393 1 0 0 0 0
2351	51916036 22 2587819 2587819 34.394 34.394 1 0 0 0 0
2352	51916058 22 2587819 2587819 34.394 34.394 1 0 0 0 0
2353	51916080 22 2587819 2587819 34.394 34.394 1 1 1 1 1
2354	51916102 36 2587664 2587664 34.393 34.393 1 2162.7075276946 2162.7075276946 2162.7075276946 4677303.8503468
2355	51916138 22 2587664 2587664 34.393 34.393 1 0 0 0 0
2356	51916160 35 2587664 2587664 34.393 34.393 1 0.008001025962 0.008001025962 0.008001025962 6.4016416444598e-05
2357	51916195 43 2587719 2587719 34.3930003588 34.3930003588 1 10253.249100722 10253.249100722 10253.249100722 105129117.12146
2447	51916238 44 2587396 2587803 34.39 34.394 2 1 73 74 5330
2477	51916282 22 2587661 2587661 34.393 34.393 1 1 1 1 1
2478	51916304 23 2587661 2587661 34.393 34.393 1 71 71 71 5041
2479	51916327 23 2587664 2587664 34.393 34.393 1 71 71 71 5041
2480	51916350 23 2587664 2587664 34.393 34.393 1 69 69 69 4761
2481	51916373 23 2587665 2587665 34.393 34.393 1 69 69 69 4761
2482	51916396 23 2587665 2587665 34.393 34.393 1 68 68 68 4624
2483	51916419 23 2587669 2587669 34.393 34.393 1 84 84 84 7056
2484	51916442 24 2587671 2587671 34.393 34.393 1 104 104 104 10816
2485	51916466 24 2587671 2587671 34.393 34.393 1 104 104 104 10816
2486	51916490 44 2587671 2587671 34.393 34.393 2 0 1 1 1
2487	51916534 24 2587671 2587671 34.393 34.393 1 104 104 104 10816
2488	51916558 22 2587671 2587671 34.393 34.393 1 0 0 0 0
2489	51916580 24 2587671 2587671 34.393 34.393 1 111 111 111 12321
2490	51916604 31 2587706 2587706 34.3930001388 34.3930001388 1 111 111 111 12321
2491	51916635 31 2587706 2587706 34.3930001388 34.3930001388 1 104 104 104 10816
2537	51916666 89 2587491 2587924 34.391 34.395 4 1 73 76 5332
2538	51916755 44 2587491 2587555 34.391 34.392 2 1 1 2 2
2598	51916799 22 2587588 2587588 34.392 34.392 1 1 1 1 1
2616	51916821 45 2587822 2587822 34.394091574448 34.394091574448 1 1179.2723151942 1179.2723151942 1179.2723151942 1390683.1933834
2617	51916866 32 2587823 2587823 34.394091574448 34.394091574448 1 48 48 48 2304
2618	51916898 32 2587826 2587826 34.394091574448 34.394091574448 1 68 68 68 4624
2619	51916930 32 2587826 2587826 34.394091574448 34.394091574448 1 69 69 69 4761
2620	51916962 32 2587827 2587827 34.394091574448 34.394091574448 1 69 69 69 4761
2621	51916994 32 2587829 2587829 34.394091574448 34.394091574448 1 71 71 71 5041
2622	51917026 22 2587869 2587869 34.395 34.395 1 1 1 1 1
2623	51917048 36 2587589 2587589 34.392 34.392 1 10.905979076725 10.905979076725 10.905979076725 118.94037962197
2624	51917084 36 2587589 2587589 34.392 34.392 1 31.765961296908 31.765961296908 31.765961296908 1009.0762971167
2651	51917120 23 2587757 2587757 34.394 34.394 1 71 71 71 5041
2652	51917143 23 2587783 2587783 34.394 34.394 1 73 73 73 5329
2653	51917166 36 2587804 2587804 34.394 34.394 1 19.358371923671 19.358371923671 19.358371923671 374.74656353518
2654	51917202 36 2587804 2587804 34.394 34.394 1 39.573641255321 39.573641255321 39.573641255321 1566.0730822049
2655	51917238 44 2587606 2587704 34.392 34.393 2 1 1 2 2
2656	51917282 22 2587753 2587753 34.394 34.394 1 1 1 1 1
2657	51917304 22 2587755 2587755 34.394 34.394 1 0 0 0 0
2658	51917326 23 2587755 2587755 34.394 34.394 1 71 71 71 5041
2659	51917349 23 2587784 2587784 34.394 34.394 1 10 10 10 100
2660	51917372 36 2587923 2587923 34.395 34.395 1 25.972298992567 25.972298992567 25.972298992567 674.56031495927
2687	51917408 22 2587600 2587600 34.392 34.392 1 1 1 1 1
2689	51917430 22 2587448 2587448 34.391 34.391 1 0 0 0 0
2693	51917452 26 2587445 2587445 34.391 34.391 1 0.004 0.004 0.004 1.6e-05
2694	51917478 22 2587448 2587448 34.391 34.391 1 0 0 0 0
2695	51917500 26 2587448 2587448 34.391 34.391 1 0.004 0.004 0.004 1.6e-05
2696	51917526 22 2587448 2587448 34.391 34.391 1 0 0 0 0
2697	51917548 22 2587600 2587600 34.392 34.392 1 0 0 0 0
2698	51917570 22 2587600 2587600 34.392 34.392 1 0 0 0 0
2699	51917592 22 2587600 2587600 34.392 34.392 1 1 1 1 1
2700	51917614 36 2587448 2587448 34.391 34.391 1 1446.5703236312 1446.5703236312 1446.5703236312 2092565.7012104
2701	51917650 22 2587448 2587448 34.391 34.391 1 0 0 0 0
2702	51917672 35 2587448 2587448 34.391 34.391 1 0.008396031439 0.008396031439 0.008396031439 7.0493343924676e-05
2703	51917707 43 2587509 2587509 34.3910003588 34.3910003588 1 6950.6556222879 6950.6556222879 6950.6556222879 48311613.579643
2762	51917750 36 2587591 2587591 34.392 34.392 1 14.046067585632 14.046067585632 14.046067585632 197.29201462013
2763	51917786 36 2587591 2587591 34.392 34.392 1 30.826095984786 30.826095984786 30.826095984786 950.24819366327
2782	51917822 22 2587445 2587445 34.391 34.391 1 1 1 1 1
2783	51917844 23 2587445 2587445 34.391 34.391 1 71 71 71 5041
2784	51917867 23 2587448 2587448 34.391 34.391 1 71 71 71 5041
2785	51917890 23 2587448 2587448 34.391 34.391 1 69 69 69 4761
2786	51917913 23 2587449 2587449 34.391 34.391 1 69 69 69 4761
2787	51917936 23 2587449 2587449 34.391 34.391 1 68 68 68 4624
2788	51917959 23 2587453 2587453 34.391 34.391 1 84 84 84 7056
2789	51917982 24 2587455 2587455 34.391 34.391 1 104 104 104 10816
2790	51918006 24 2587455 2587455 34.391 34.391 1 104 104 104 10816
2791	51918030 44 2587455 2587455 34.391 34.391 2 0 1 1 1
2792	51918074 24 2587455 2587455 34.391 34.391 1 104 104 104 10816
2793	51918098 22 2587455 2587455 34.391 34.391 1 0 0 0 0
2794	51918120 24 2587455 2587455 34.391 34.391 1 111 111 111 12321
2795	51918144 31 2587496 2587496 34.3910001388 34.3910001388 1 111 111 111 12321
2796	51918175 31 2587496 2587496 34.3910001388 34.3910001388 1 104 104 104 10816
2808	51918206 35 2587806 2587806 34.394 34.394 1 29.85791372152 29.85791372152 29.85791372152 891.49501180174
2809	51918241 36 2587806 2587806 34.394 34.394 1 50.647166725356 50.647166725356 50.647166725356 2565.135497306
2948	51918277 44 2587807 2587811 34.394 34.394 2 1 1 2 2
2950	51918321 66 2587394 2587594 34.39 34.392 3 1 46 48 2118
2951	51918387 44 2587654 2587654 34.393 34.393 2 1 1 2 2
2952	51918431 23 2587654 2587654 34.393 34.393 1 44 44 44 1936
2953	51918454 23 2587658 2587658 34.393 34.393 1 44 44 44 1936
2989	51918477 36 2587593 2587593 34.392 34.392 1 39.773031837831 39.773031837831 39.773031837831 1581.8940615731
2990	51918513 35 2587593 2587593 34.392 34.392 1 56.56193640949 56.56193640949 56.56193640949 3199.2526503912
3016	51918548 23 2587632 2587632 34.393 34.393 1 71 71 71 5041
3017	51918571 23 2587684 2587684 34.393 34.393 1 73 73 73 5329
3018	51918594 36 2587808 2587808 34.394 34.394 1 18.925167898161 18.925167898161 18.925167898161 358.16197997358
3019	51918630 36 2587808 2587808 34.394 34.394 1 38.507777490755 38.507777490755 38.507777490755 1482.8489272775
3020	51918666 44 2587494 2587602 34.391 34.392 2 1 1 2 2
3021	51918710 22 2587628 2587628 34.393 34.393 1 1 1 1 1
3022	51918732 22 2587630 2587630 34.393 34.393 1 0 0 0 0
3023	51918754 23 2587630 2587630 34.393 34.393 1 71 71 71 5041
3024	51918777 23 2587685 2587685 34.393 34.393 1 10 10 10 100
3025	51918800 36 2587820 2587820 34.394 34.394 1 20.319875360004 20.319875360004 20.319875360004 412.8973346461
3080	51918836 45 2587809 2587821 34.394 34.394 2 1 73 74 5330
3081	51918881 22 2587466 2587466 34.391 34.391 1 1 1 1 1
3137	51918903 36 2587595 2587595 34.392 34.392 1 33.627322615898 33.627322615898 33.627322615898 1130.7968263137
3138	51918939 36 2587595 2587595 34.392 34.392 1 50.196673810424 50.196673810424 50.196673810424 2519.7060616301
3169	51918975 36 2587810 2587810 34.394 34.394 1 33.294109196677 33.294109196677 33.294109196677 1108.4977072002
3170	51919011 36 2587810 2587810 34.394 34.394 1 48.814857544462 48.814857544462 48.814857544462 2382.8903170861
3198	51919047 23 2587847 2587847 34.395 34.395 1 29 29 29 841
3199	51919070 23 2587904 2587904 34.395 34.395 1 31 31 31 961
3202	51919093 44 2587815 2587817 34.394 34.394 2 1 1 2 2
3203	51919137 22 2587843 2587843 34.395 34.395 1 1 1 1 1
3204	51919159 22 2587845 2587845 34.395 34.395 1 0 0 0 0
3205	51919181 23 2587845 2587845 34.395 34.395 1 29 29 29 841
3206	51919204 22 2587905 2587905 34.395 34.395 1 6 6 6 36
3207	51919226 35 2587393 2587393 34.39 34.39 1 10.674574638254 10.674574638254 10.674574638254 113.94654370765
3208	51919261 26 2587654 2587654 34.393 34.393 1 0.004 0.004 0.004 1.6e-05
3209	51919287 22 2587658 2587658 34.393 34.393 1 0 0 0 0
3210	51919309 26 2587658 2587658 34.393 34.393 1 0.004 0.004 0.004 1.6e-05
3211	51919335 22 2587658 2587658 34.393 34.393 1 0 0 0 0
3212	51919357 22 2587815 2587815 34.394 34.394 1 0 0 0 0
3213	51919379 22 2587815 2587815 34.394 34.394 1 0 0 0 0
3214	51919401 22 2587815 2587815 34.394 34.394 1 1 1 1 1
3231	51919423 36 2587597 2587597 34.392 34.392 1 25.610244372491 25.610244372491 25.610244372491 655.88461681868
3232	51919459 36 2587597 2587597 34.392 34.392 1 45.826877867409 45.826877867409 45.826877867409 2100.1027350744
3337	51919495 22 2587598 2587598 34.392 34.392 1 1 1 1 1
3364	51919517 23 2587410 2587410 34.391 34.391 1 71 71 71 5041
3365	51919540 23 2587471 2587471 34.391 34.391 1 73 73 73 5329
3366	51919563 36 2587812 2587812 34.394 34.394 1 54.594030517546 54.594030517546 54.594030517546 2980.5081681507
3367	51919599 35 2587812 2587812 34.394 34.394 1 70.77229798311 70.77229798311 70.77229798311 5008.71816181
3369	51919634 22 2587406 2587406 34.391 34.391 1 1 1 1 1
3370	51919656 44 2587408 2587880 34.391 34.395 2 0 0 0 0
3371	51919700 23 2587408 2587408 34.391 34.391 1 71 71 71 5041
3372	51919723 23 2587472 2587472 34.391 34.391 1 15 15 15 225
3373	51919746 36 2587603 2587603 34.392 34.392 1 59.212637882615 59.212637882615 59.212637882615 3506.1364850177
3374	51919782 26 2587877 2587877 34.395 34.395 1 0.004 0.004 0.004 1.6e-05
3375	51919808 22 2587880 2587880 34.395 34.395 1 0 0 0 0
3376	51919830 26 2587880 2587880 34.395 34.395 1 0.004 0.004 0.004 1.6e-05
3377	51919856 36 2587880 2587880 34.395 34.395 1 190.58002616659 190.58002616659 190.58002616659 36320.74637366
3378	51919892 22 2587880 2587880 34.395 34.395 1 0 0 0 0
3379	51919914 35 2587880 2587880 34.395 34.395 1 0.008960826316 0.008960826316 0.008960826316 8.0296408265518e-05
3380	51919949 22 2587880 2587880 34.395 34.395 1 0 0 0 0
vector 3414 prova5G.server.app[15] voIPFrameDelay:vector ETV
attr source voIPFrameDelay
attr title "VoIP Frame Delay, vector"
attr unit s
vector 3415 prova5G.server.app[17] voIPFrameDelay:vector ETV
attr source voIPFrameDelay
attr title "VoIP Frame Delay, vector"
attr unit s
2476	51920247 2508 2587934 2587934 34.395000254515 34.395000254515 57 0.008567883779 0.008567943779 0.488369435403 0.0041842930778254
2492	51922755 440 2587934 2587934 34.395000254515 34.395000254515 10 0.008001384762 0.008001384762 0.08001384762 0.00064022158109566
2553	51923195 352 2587934 2587934 34.395000254515 34.395000254515 8 0.008216538465 0.008216538465 0.06573230772 0.0005400920347746
2675	51923547 176 2587934 2587934 34.395000254515 34.395000254515 4 0.008327939902 0.008327939902 0.033311759608 0.0002774183320453
2707	51923723 44 2587934 2587934 34.395000254515 34.395000254515 1 0.014908784352 0.014908784352 0.014908784352 0.00022227185085444
2781	51923767 4268 2587934 2587934 34.395000254515 34.395000254515 97 0.008251053703 0.047251053703 1.357352297991 0.021206427724287
2797	51928035 2156 2587934 2587934 34.395000254515 34.395000254515 49 0.008396390239 0.008396390239 0.411423121711 0.0034544690832331
2858	51930191 1276 2587934 2587934 34.395000254515 34.395000254515 29 0.008378437268 0.008378497268 0.242975220772 0.0020357571693052
2859	51931467 7040 2587934 2587934 34.395000254515 34.395000254515 160 0.008772908013 0.014772908013 1.42166726208 0.012738085830032
3008	51938507 12100 2587934 2587934 34.395000254515 34.395000254515 275 0.008496624398 0.008496624398 2.33657170945 0.019852972194189
3156	51950607 5720 2587934 2587934 34.395000254515 34.395000254515 130 0.008557632061 0.020557632061 1.83249834793 0.026379468744432
3157	51956327 88 2587934 2587934 34.395000254515 34.395000254515 2 0.008724664057 0.008724664057 0.017449328114 0.00015223952581502
3189	51956415 2992 2587934 2587934 34.395000254515 34.395000254515 68 0.008498752589 0.014498752589 0.583915176052 0.0050495431297623
3190	51959407 602 2587934 2587934 34.395000254515 34.395000254515 14 0.00813753016 0.00813753016 0.11392542224 0.00092707155946874
3221	51960009 220 2587934 2587934 34.395000254515 34.395000254515 5 0.014884853884 0.014884853884 0.07442426942 0.0011077943757401
3385	51960229 3300 2587934 2587934 34.395000254515 34.395000254515 75 0.008961185116 0.008961185116 0.6720888837 0.0060227129012415
3414	51963529 6512 2587934 2587934 34.395000254515 34.395000254515 148 0.008680537936 0.014680597936 1.296729574528 0.011432563898648
3415	51970041 630 2587934 2587934 34.395000254515 34.395000254515 15 0.0080003588 0.0090003588 0.121005382 0.00097708683153106

